version 2
run CCH_SCH_Safety_B_100Bytes_Q_2-0-20171004-21:14:52-16620
attr configname CCH_SCH_Safety_B_100Bytes_Q_2
attr datetime 20171004-21:14:52
attr experiment CCH_SCH_Safety_B_100Bytes_Q_2
attr inifile omnetpp.ini
attr iterationvars $0=1
attr iterationvars2 "$0=1, $repetition=0"
attr measurement $0=1
attr network RSUScenario
attr processid 16620
attr repetition 0
attr replication #0
attr resultdir results
attr runnumber 0
attr seedset 0
param **.coreDebug false
param **.debug true
param *.**.nic.mac1609_4.bitrate 6Mbps
param *.**.nic.mac1609_4.queueSize ${1,2,5}
param *.**.nic.mac1609_4.txPower 100mW
param *.**.nic.mac1609_4.useServiceChannel false
param *.**.nic.phy80211p.analogueModels "xmldoc(\"config.xml\")"
param *.**.nic.phy80211p.decider "xmldoc(\"config.xml\")"
param *.**.nic.phy80211p.decider.collectCollisionStats true
param *.**.nic.phy80211p.maxTXPower 100mW
param *.**.nic.phy80211p.sensitivity -89dBm
param *.**.nic.phy80211p.thermalNoise -110dBm
param *.**.nic.phy80211p.usePropagationDelay true
param *.**.nic.phy80211p.useThermalNoise true
param *.annotations.draw false
param *.connectionManager.alpha 2.0
param *.connectionManager.carrierFrequency "5.890e9 Hz"
param *.connectionManager.pMax 100mW
param *.connectionManager.sat -89dBm
param *.connectionManager.sendDirect true
param *.manager.autoShutdown true
param *.manager.host "\"localhost\""
param *.manager.launchConfig "xmldoc(\"erlangen.launchd.xml\")"
param *.manager.margin 25
param *.manager.moduleDisplayString "\"\""
param *.manager.moduleName "\"node\""
param *.manager.moduleType "\"vanets.src.CarWithMetrics\""
param *.manager.numVehicles 5
param *.manager.port 9999
param *.manager.updateInterval 0.1s
param *.metricsApplicaiton[*].appl.sendBeacons false
param *.metricsApplication.appl.beaconInterval 1s
param *.metricsApplication.appl.beaconLengthBits 800bit
param *.metricsApplication.appl.beaconPriority 3
param *.metricsApplication.appl.dataOnSch false
param *.metricsApplication.appl.dataPriority 2
param *.metricsApplication.appl.debug false
param *.metricsApplication.appl.headerLength "256 bit"
param *.metricsApplication.appl.maxOffset 0.005s
param *.metricsApplication.appl.sendBeacons false
param *.metricsApplication.appl.sendData true
param *.metricsApplication.applType "\"TraCIDemoRSU11p\""
param *.metricsApplication.mobility.x 2000
param *.metricsApplication.mobility.y 2000
param *.metricsApplication.mobility.z 3
param *.metricsApplication[*].appl.beaconInterval 0.1s
param *.metricsApplication[*].appl.beaconPriority 3
param *.metricsApplication[*].appl.dataOnSch false
param *.metricsApplication[*].appl.sendData false
param *.node[*0].veinsmobility.accidentCount 1
param *.node[*0].veinsmobility.accidentDuration 30s
param *.node[*0].veinsmobility.accidentStart 10s
param *.node[*].appl.beaconInterval 1s
param *.node[*].appl.beaconLengthBits 800bit
param *.node[*].appl.beaconPriority 3
param *.node[*].appl.dataOnSch false
param *.node[*].appl.dataPriority 2
param *.node[*].appl.debug false
param *.node[*].appl.headerLength "256 bit"
param *.node[*].appl.maxOffset 0.005s
param *.node[*].appl.sendBeacons false
param *.node[*].appl.sendData true
param *.node[*].applType "\"TraCIDemo11p\""
param *.node[*].mobilityType "\"TraCIMobility\""
param *.node[*].mobilityType.debug true
param *.node[*].veinsmobility.x 0
param *.node[*].veinsmobility.y 0
param *.node[*].veinsmobility.z 1.895
param *.node[*].veinsmobilityType "\"org.car2x.veins.modules.mobility.traci.TraCIMobility\""
param *.node[*].veinsmobilityType.debug true
param *.obstacles.debug false
param *.playgroundSizeX 25000m
param *.playgroundSizeY 25000m
param *.playgroundSizeZ 50m
param *.rsu[*].appl.beaconInterval 1s
param *.rsu[*].appl.beaconLengthBits 800bit
param *.rsu[*].appl.beaconPriority 3
param *.rsu[*].appl.dataOnSch false
param *.rsu[*].appl.dataPriority 2
param *.rsu[*].appl.debug false
param *.rsu[*].appl.headerLength "256 bit"
param *.rsu[*].appl.maxOffset 0.005s
param *.rsu[*].appl.sendBeacons false
param *.rsu[*].appl.sendData true
param *.rsu[*].applType "\"TraCIDemoRSU11p\""
param *.rsu[0].mobility.x 2000
param *.rsu[0].mobility.y 2000
param *.rsu[0].mobility.z 3
param *.world.use2D false
param *.world.useTorus false

scalar RSUScenario.node[1].nic.phy80211p 	busyTime 	0.019813664122137
scalar RSUScenario.node[1].nic.mac1609_4 	throughputMetricMac 	87.477851248325
scalar RSUScenario.node[1].nic.mac1609_4 	throughputMbps 	0.092399867869631
scalar RSUScenario.node[1].nic.mac1609_4 	throughputControlMbps 	0
scalar RSUScenario.node[1].nic.mac1609_4 	receivedFramesLowerMsg 	9268
scalar RSUScenario.node[1].nic.mac1609_4 	receivedBitsLowerPackets 	0
scalar RSUScenario.node[1].nic.mac1609_4 	receivedBitsLoserWsm 	0
scalar RSUScenario.node[1].nic.mac1609_4 	packetsNotForMe 	0
scalar RSUScenario.node[1].nic.mac1609_4 	receivedTotalBits 	9789472
scalar RSUScenario.node[1].nic.mac1609_4 	collisionsPktNonDecoded 	0
scalar RSUScenario.node[1].nic.mac1609_4 	channelUtilization 	1049
scalar RSUScenario.node[1].nic.mac1609_4 	ReceivedUnicastPackets 	0
scalar RSUScenario.node[1].nic.mac1609_4 	ReceivedBroadcasts 	9268
scalar RSUScenario.node[1].nic.mac1609_4 	SentPackets 	1049
scalar RSUScenario.node[1].nic.mac1609_4 	SNIRLostPackets 	0
scalar RSUScenario.node[1].nic.mac1609_4 	RXTXLostPackets 	0
scalar RSUScenario.node[1].nic.mac1609_4 	TotalLostPackets 	0
scalar RSUScenario.node[1].nic.mac1609_4 	DroppedPacketsInMac 	0
scalar RSUScenario.node[1].nic.mac1609_4 	TooLittleTime 	0
scalar RSUScenario.node[1].nic.mac1609_4 	TimesIntoBackoff 	1049
scalar RSUScenario.node[1].nic.mac1609_4 	SlotsBackoff 	1545
scalar RSUScenario.node[1].nic.mac1609_4 	NumInternalContention 	0
scalar RSUScenario.node[1].nic.mac1609_4 	totalBusyTime 	2.312537
scalar RSUScenario.node[1].nic.mac1609_4 	throughputMetricMac:last 	87.477851248325
attr source  throughputSignalMac
attr title  "throughputMetricMac, last"
scalar RSUScenario.node[1].nic.mac1609_4 	throughputMetricMac:count 	9268
attr source  throughputSignalMac
attr title  "throughputMetricMac, count"
scalar RSUScenario.node[1].nic.mac1609_4 	throughputMetricMac:sum 	766228.41222088
attr source  throughputSignalMac
attr title  "throughputMetricMac, sum"
scalar RSUScenario.node[1].nic.mac1609_4 	throughputMetricMac:mean 	82.674623675106
attr source  throughputSignalMac
attr title  "throughputMetricMac, mean"
scalar RSUScenario.node[1].veinsmobility 	startTime 	1.2
scalar RSUScenario.node[1].veinsmobility 	totalTime 	104.7
scalar RSUScenario.node[1].veinsmobility 	stopTime 	106
scalar RSUScenario.node[1].veinsmobility 	minSpeed 	31.160215385095
scalar RSUScenario.node[1].veinsmobility 	maxSpeed 	31.289876849744
scalar RSUScenario.node[1].veinsmobility 	totalDistance 	3270.6354827429
scalar RSUScenario.node[1].veinsmobility 	totalCO2Emission 	582.98566875327
scalar RSUScenario.node[2].nic.phy80211p 	busyTime 	0.019807251908396
scalar RSUScenario.node[2].nic.mac1609_4 	throughputMetricMac 	87.449535155882
scalar RSUScenario.node[2].nic.mac1609_4 	throughputMbps 	0.092369966076012
scalar RSUScenario.node[2].nic.mac1609_4 	throughputControlMbps 	0
scalar RSUScenario.node[2].nic.mac1609_4 	receivedFramesLowerMsg 	9265
scalar RSUScenario.node[2].nic.mac1609_4 	receivedBitsLowerPackets 	0
scalar RSUScenario.node[2].nic.mac1609_4 	receivedBitsLoserWsm 	0
scalar RSUScenario.node[2].nic.mac1609_4 	packetsNotForMe 	0
scalar RSUScenario.node[2].nic.mac1609_4 	receivedTotalBits 	9786304
scalar RSUScenario.node[2].nic.mac1609_4 	collisionsPktNonDecoded 	0
scalar RSUScenario.node[2].nic.mac1609_4 	channelUtilization 	1049
scalar RSUScenario.node[2].nic.mac1609_4 	ReceivedUnicastPackets 	0
scalar RSUScenario.node[2].nic.mac1609_4 	ReceivedBroadcasts 	9265
scalar RSUScenario.node[2].nic.mac1609_4 	SentPackets 	1049
scalar RSUScenario.node[2].nic.mac1609_4 	SNIRLostPackets 	0
scalar RSUScenario.node[2].nic.mac1609_4 	RXTXLostPackets 	0
scalar RSUScenario.node[2].nic.mac1609_4 	TotalLostPackets 	0
scalar RSUScenario.node[2].nic.mac1609_4 	DroppedPacketsInMac 	0
scalar RSUScenario.node[2].nic.mac1609_4 	TooLittleTime 	0
scalar RSUScenario.node[2].nic.mac1609_4 	TimesIntoBackoff 	1049
scalar RSUScenario.node[2].nic.mac1609_4 	SlotsBackoff 	1661
scalar RSUScenario.node[2].nic.mac1609_4 	NumInternalContention 	0
scalar RSUScenario.node[2].nic.mac1609_4 	totalBusyTime 	2.311865
scalar RSUScenario.node[2].nic.mac1609_4 	throughputMetricMac:last 	87.449535155882
attr source  throughputSignalMac
attr title  "throughputMetricMac, last"
scalar RSUScenario.node[2].nic.mac1609_4 	throughputMetricMac:count 	9265
attr source  throughputSignalMac
attr title  "throughputMetricMac, count"
scalar RSUScenario.node[2].nic.mac1609_4 	throughputMetricMac:sum 	765696.56326424
attr source  throughputSignalMac
attr title  "throughputMetricMac, sum"
scalar RSUScenario.node[2].nic.mac1609_4 	throughputMetricMac:mean 	82.643989559012
attr source  throughputSignalMac
attr title  "throughputMetricMac, mean"
scalar RSUScenario.node[2].veinsmobility 	startTime 	1.2
scalar RSUScenario.node[2].veinsmobility 	totalTime 	104.7
scalar RSUScenario.node[2].veinsmobility 	stopTime 	106
scalar RSUScenario.node[2].veinsmobility 	minSpeed 	31.16024968538
scalar RSUScenario.node[2].veinsmobility 	maxSpeed 	31.289973095939
scalar RSUScenario.node[2].veinsmobility 	totalDistance 	3271.6090219997
scalar RSUScenario.node[2].veinsmobility 	totalCO2Emission 	585.50500428217
scalar RSUScenario.node[4].nic.phy80211p 	busyTime 	0.020294580152671
scalar RSUScenario.node[4].nic.mac1609_4 	throughputMetricMac 	88.268533838237
scalar RSUScenario.node[4].nic.mac1609_4 	throughputMbps 	0.093234482685194
scalar RSUScenario.node[4].nic.mac1609_4 	throughputControlMbps 	0
scalar RSUScenario.node[4].nic.mac1609_4 	receivedFramesLowerMsg 	9493
scalar RSUScenario.node[4].nic.mac1609_4 	receivedBitsLowerPackets 	0
scalar RSUScenario.node[4].nic.mac1609_4 	receivedBitsLoserWsm 	0
scalar RSUScenario.node[4].nic.mac1609_4 	packetsNotForMe 	0
scalar RSUScenario.node[4].nic.mac1609_4 	receivedTotalBits 	10027072
scalar RSUScenario.node[4].nic.mac1609_4 	collisionsPktNonDecoded 	0
scalar RSUScenario.node[4].nic.mac1609_4 	channelUtilization 	1049
scalar RSUScenario.node[4].nic.mac1609_4 	ReceivedUnicastPackets 	0
scalar RSUScenario.node[4].nic.mac1609_4 	ReceivedBroadcasts 	9493
scalar RSUScenario.node[4].nic.mac1609_4 	SentPackets 	1049
scalar RSUScenario.node[4].nic.mac1609_4 	SNIRLostPackets 	0
scalar RSUScenario.node[4].nic.mac1609_4 	RXTXLostPackets 	0
scalar RSUScenario.node[4].nic.mac1609_4 	TotalLostPackets 	0
scalar RSUScenario.node[4].nic.mac1609_4 	DroppedPacketsInMac 	0
scalar RSUScenario.node[4].nic.mac1609_4 	TooLittleTime 	0
scalar RSUScenario.node[4].nic.mac1609_4 	TimesIntoBackoff 	2098
scalar RSUScenario.node[4].nic.mac1609_4 	SlotsBackoff 	3051
scalar RSUScenario.node[4].nic.mac1609_4 	NumInternalContention 	0
scalar RSUScenario.node[4].nic.mac1609_4 	totalBusyTime 	2.362937
scalar RSUScenario.node[4].nic.mac1609_4 	throughputMetricMac:last 	88.268533838237
attr source  throughputSignalMac
attr title  "throughputMetricMac, last"
scalar RSUScenario.node[4].nic.mac1609_4 	throughputMetricMac:count 	9493
attr source  throughputSignalMac
attr title  "throughputMetricMac, count"
scalar RSUScenario.node[4].nic.mac1609_4 	throughputMetricMac:sum 	793369.30982239
attr source  throughputSignalMac
attr title  "throughputMetricMac, sum"
scalar RSUScenario.node[4].nic.mac1609_4 	throughputMetricMac:mean 	83.574139873843
attr source  throughputSignalMac
attr title  "throughputMetricMac, mean"
scalar RSUScenario.node[4].veinsmobility 	startTime 	2.8
scalar RSUScenario.node[4].veinsmobility 	totalTime 	104.7
scalar RSUScenario.node[4].veinsmobility 	stopTime 	107.6
scalar RSUScenario.node[4].veinsmobility 	minSpeed 	31.160111452104
scalar RSUScenario.node[4].veinsmobility 	maxSpeed 	31.289980451211
scalar RSUScenario.node[4].veinsmobility 	totalDistance 	3270.520309585
scalar RSUScenario.node[4].veinsmobility 	totalCO2Emission 	581.73967272401
scalar RSUScenario.node[3].nic.phy80211p 	busyTime 	0.02855671966526
scalar RSUScenario.node[3].nic.mac1609_4 	throughputMetricMac 	120.98475285896
scalar RSUScenario.node[3].nic.mac1609_4 	throughputMbps 	0.12778555204038
scalar RSUScenario.node[3].nic.mac1609_4 	throughputControlMbps 	0
scalar RSUScenario.node[3].nic.mac1609_4 	receivedFramesLowerMsg 	14790
scalar RSUScenario.node[3].nic.mac1609_4 	receivedBitsLowerPackets 	0
scalar RSUScenario.node[3].nic.mac1609_4 	receivedBitsLoserWsm 	0
scalar RSUScenario.node[3].nic.mac1609_4 	packetsNotForMe 	0
scalar RSUScenario.node[3].nic.mac1609_4 	receivedTotalBits 	15621376
scalar RSUScenario.node[3].nic.mac1609_4 	collisionsPktNonDecoded 	0
scalar RSUScenario.node[3].nic.mac1609_4 	channelUtilization 	1196
scalar RSUScenario.node[3].nic.mac1609_4 	ReceivedUnicastPackets 	0
scalar RSUScenario.node[3].nic.mac1609_4 	ReceivedBroadcasts 	14790
scalar RSUScenario.node[3].nic.mac1609_4 	SentPackets 	1196
scalar RSUScenario.node[3].nic.mac1609_4 	SNIRLostPackets 	442
scalar RSUScenario.node[3].nic.mac1609_4 	RXTXLostPackets 	0
scalar RSUScenario.node[3].nic.mac1609_4 	TotalLostPackets 	442
scalar RSUScenario.node[3].nic.mac1609_4 	DroppedPacketsInMac 	0
scalar RSUScenario.node[3].nic.mac1609_4 	TooLittleTime 	0
scalar RSUScenario.node[3].nic.mac1609_4 	TimesIntoBackoff 	1197
scalar RSUScenario.node[3].nic.mac1609_4 	SlotsBackoff 	1849
scalar RSUScenario.node[3].nic.mac1609_4 	NumInternalContention 	0
scalar RSUScenario.node[3].nic.mac1609_4 	totalBusyTime 	3.632164
scalar RSUScenario.node[3].nic.mac1609_4 	throughputMetricMac:last 	120.98475285896
attr source  throughputSignalMac
attr title  "throughputMetricMac, last"
scalar RSUScenario.node[3].nic.mac1609_4 	throughputMetricMac:count 	14790
attr source  throughputSignalMac
attr title  "throughputMetricMac, count"
scalar RSUScenario.node[3].nic.mac1609_4 	throughputMetricMac:sum 	1580864.8343159
attr source  throughputSignalMac
attr title  "throughputMetricMac, sum"
scalar RSUScenario.node[3].nic.mac1609_4 	throughputMetricMac:mean 	106.88741273265
attr source  throughputSignalMac
attr title  "throughputMetricMac, mean"
scalar RSUScenario.node[3].veinsmobility 	startTime 	2.8
scalar RSUScenario.node[3].veinsmobility 	totalTime 	119.4
scalar RSUScenario.node[3].veinsmobility 	stopTime 	122.3
scalar RSUScenario.node[3].veinsmobility 	minSpeed 	2.5170211885758
scalar RSUScenario.node[3].veinsmobility 	maxSpeed 	31.289952244477
scalar RSUScenario.node[3].veinsmobility 	totalDistance 	3276.1216638645
scalar RSUScenario.node[3].veinsmobility 	totalCO2Emission 	726.28171090449
scalar RSUScenario.node[6].nic.phy80211p 	busyTime 	0.03233542809641
scalar RSUScenario.node[6].nic.mac1609_4 	throughputMetricMac 	131.7085070763
scalar RSUScenario.node[6].nic.mac1609_4 	throughputMbps 	0.13911228296
scalar RSUScenario.node[6].nic.mac1609_4 	throughputControlMbps 	0
scalar RSUScenario.node[6].nic.mac1609_4 	receivedFramesLowerMsg 	16799
scalar RSUScenario.node[6].nic.mac1609_4 	receivedBitsLowerPackets 	0
scalar RSUScenario.node[6].nic.mac1609_4 	receivedBitsLoserWsm 	0
scalar RSUScenario.node[6].nic.mac1609_4 	packetsNotForMe 	0
scalar RSUScenario.node[6].nic.mac1609_4 	receivedTotalBits 	17743328
scalar RSUScenario.node[6].nic.mac1609_4 	collisionsPktNonDecoded 	0
scalar RSUScenario.node[6].nic.mac1609_4 	channelUtilization 	1204
scalar RSUScenario.node[6].nic.mac1609_4 	ReceivedUnicastPackets 	0
scalar RSUScenario.node[6].nic.mac1609_4 	ReceivedBroadcasts 	16799
scalar RSUScenario.node[6].nic.mac1609_4 	SentPackets 	1204
scalar RSUScenario.node[6].nic.mac1609_4 	SNIRLostPackets 	564
scalar RSUScenario.node[6].nic.mac1609_4 	RXTXLostPackets 	0
scalar RSUScenario.node[6].nic.mac1609_4 	TotalLostPackets 	564
scalar RSUScenario.node[6].nic.mac1609_4 	DroppedPacketsInMac 	0
scalar RSUScenario.node[6].nic.mac1609_4 	TooLittleTime 	0
scalar RSUScenario.node[6].nic.mac1609_4 	TimesIntoBackoff 	1204
scalar RSUScenario.node[6].nic.mac1609_4 	SlotsBackoff 	1778
scalar RSUScenario.node[6].nic.mac1609_4 	NumInternalContention 	0
scalar RSUScenario.node[6].nic.mac1609_4 	totalBusyTime 	4.097724
scalar RSUScenario.node[6].nic.mac1609_4 	throughputMetricMac:last 	131.7085070763
attr source  throughputSignalMac
attr title  "throughputMetricMac, last"
scalar RSUScenario.node[6].nic.mac1609_4 	throughputMetricMac:count 	16799
attr source  throughputSignalMac
attr title  "throughputMetricMac, count"
scalar RSUScenario.node[6].nic.mac1609_4 	throughputMetricMac:sum 	1884689.2045231
attr source  throughputSignalMac
attr title  "throughputMetricMac, sum"
scalar RSUScenario.node[6].nic.mac1609_4 	throughputMetricMac:mean 	112.19055923109
attr source  throughputSignalMac
attr title  "throughputMetricMac, mean"
scalar RSUScenario.node[6].veinsmobility 	startTime 	7.3
scalar RSUScenario.node[6].veinsmobility 	totalTime 	120.2
scalar RSUScenario.node[6].veinsmobility 	stopTime 	127.6
scalar RSUScenario.node[6].veinsmobility 	minSpeed 	0.25956810897705
scalar RSUScenario.node[6].veinsmobility 	maxSpeed 	31.289831382905
scalar RSUScenario.node[6].veinsmobility 	totalDistance 	3275.1429151318
scalar RSUScenario.node[6].veinsmobility 	totalCO2Emission 	721.78145281147
scalar RSUScenario.node[5].nic.phy80211p 	busyTime 	0.034698695993704
scalar RSUScenario.node[5].nic.mac1609_4 	throughputMetricMac 	144.88025808748
scalar RSUScenario.node[5].nic.mac1609_4 	throughputMbps 	0.15302583242614
scalar RSUScenario.node[5].nic.mac1609_4 	throughputControlMbps 	0
scalar RSUScenario.node[5].nic.mac1609_4 	receivedFramesLowerMsg 	19102
scalar RSUScenario.node[5].nic.mac1609_4 	receivedBitsLowerPackets 	0
scalar RSUScenario.node[5].nic.mac1609_4 	receivedBitsLoserWsm 	0
scalar RSUScenario.node[5].nic.mac1609_4 	packetsNotForMe 	0
scalar RSUScenario.node[5].nic.mac1609_4 	receivedTotalBits 	20175968
scalar RSUScenario.node[5].nic.mac1609_4 	collisionsPktNonDecoded 	0
scalar RSUScenario.node[5].nic.mac1609_4 	channelUtilization 	1274
scalar RSUScenario.node[5].nic.mac1609_4 	ReceivedUnicastPackets 	0
scalar RSUScenario.node[5].nic.mac1609_4 	ReceivedBroadcasts 	19102
scalar RSUScenario.node[5].nic.mac1609_4 	SentPackets 	1274
scalar RSUScenario.node[5].nic.mac1609_4 	SNIRLostPackets 	614
scalar RSUScenario.node[5].nic.mac1609_4 	RXTXLostPackets 	0
scalar RSUScenario.node[5].nic.mac1609_4 	TotalLostPackets 	614
scalar RSUScenario.node[5].nic.mac1609_4 	DroppedPacketsInMac 	0
scalar RSUScenario.node[5].nic.mac1609_4 	TooLittleTime 	0
scalar RSUScenario.node[5].nic.mac1609_4 	TimesIntoBackoff 	1275
scalar RSUScenario.node[5].nic.mac1609_4 	SlotsBackoff 	1910
scalar RSUScenario.node[5].nic.mac1609_4 	NumInternalContention 	0
scalar RSUScenario.node[5].nic.mac1609_4 	totalBusyTime 	4.635066
scalar RSUScenario.node[5].nic.mac1609_4 	throughputMetricMac:last 	144.88025808748
attr source  throughputSignalMac
attr title  "throughputMetricMac, last"
scalar RSUScenario.node[5].nic.mac1609_4 	throughputMetricMac:count 	19102
attr source  throughputSignalMac
attr title  "throughputMetricMac, count"
scalar RSUScenario.node[5].nic.mac1609_4 	throughputMetricMac:sum 	2331390.284381
attr source  throughputSignalMac
attr title  "throughputMetricMac, sum"
scalar RSUScenario.node[5].nic.mac1609_4 	throughputMetricMac:mean 	122.04953849759
attr source  throughputSignalMac
attr title  "throughputMetricMac, mean"
scalar RSUScenario.node[5].veinsmobility 	startTime 	4.6
scalar RSUScenario.node[5].veinsmobility 	totalTime 	127.2
scalar RSUScenario.node[5].veinsmobility 	stopTime 	131.9
scalar RSUScenario.node[5].veinsmobility 	minSpeed 	0.046491106722312
scalar RSUScenario.node[5].veinsmobility 	maxSpeed 	31.289783729354
scalar RSUScenario.node[5].veinsmobility 	totalDistance 	3275.167828606
scalar RSUScenario.node[5].veinsmobility 	totalCO2Emission 	734.03366820196
scalar RSUScenario.node[8].nic.phy80211p 	busyTime 	0.037460364842443
scalar RSUScenario.node[8].nic.mac1609_4 	throughputMetricMac 	146.74778650753
scalar RSUScenario.node[8].nic.mac1609_4 	throughputMbps 	0.15499762726758
scalar RSUScenario.node[8].nic.mac1609_4 	throughputControlMbps 	0
scalar RSUScenario.node[8].nic.mac1609_4 	receivedFramesLowerMsg 	19539
scalar RSUScenario.node[8].nic.mac1609_4 	receivedBitsLowerPackets 	0
scalar RSUScenario.node[8].nic.mac1609_4 	receivedBitsLoserWsm 	0
scalar RSUScenario.node[8].nic.mac1609_4 	packetsNotForMe 	0
scalar RSUScenario.node[8].nic.mac1609_4 	receivedTotalBits 	20637440
scalar RSUScenario.node[8].nic.mac1609_4 	collisionsPktNonDecoded 	0
scalar RSUScenario.node[8].nic.mac1609_4 	channelUtilization 	1207
scalar RSUScenario.node[8].nic.mac1609_4 	ReceivedUnicastPackets 	0
scalar RSUScenario.node[8].nic.mac1609_4 	ReceivedBroadcasts 	19539
scalar RSUScenario.node[8].nic.mac1609_4 	SentPackets 	1207
scalar RSUScenario.node[8].nic.mac1609_4 	SNIRLostPackets 	626
scalar RSUScenario.node[8].nic.mac1609_4 	RXTXLostPackets 	0
scalar RSUScenario.node[8].nic.mac1609_4 	TotalLostPackets 	626
scalar RSUScenario.node[8].nic.mac1609_4 	DroppedPacketsInMac 	0
scalar RSUScenario.node[8].nic.mac1609_4 	TooLittleTime 	0
scalar RSUScenario.node[8].nic.mac1609_4 	TimesIntoBackoff 	1384
scalar RSUScenario.node[8].nic.mac1609_4 	SlotsBackoff 	2124
scalar RSUScenario.node[8].nic.mac1609_4 	NumInternalContention 	0
scalar RSUScenario.node[8].nic.mac1609_4 	totalBusyTime 	4.719223
scalar RSUScenario.node[8].nic.mac1609_4 	throughputMetricMac:last 	146.74778650753
attr source  throughputSignalMac
attr title  "throughputMetricMac, last"
scalar RSUScenario.node[8].nic.mac1609_4 	throughputMetricMac:count 	19539
attr source  throughputSignalMac
attr title  "throughputMetricMac, count"
scalar RSUScenario.node[8].nic.mac1609_4 	throughputMetricMac:sum 	2328108.2952268
attr source  throughputSignalMac
attr title  "throughputMetricMac, sum"
scalar RSUScenario.node[8].nic.mac1609_4 	throughputMetricMac:mean 	119.15186525548
attr source  throughputSignalMac
attr title  "throughputMetricMac, mean"
scalar RSUScenario.node[8].veinsmobility 	startTime 	12.6
scalar RSUScenario.node[8].veinsmobility 	totalTime 	120.5
scalar RSUScenario.node[8].veinsmobility 	stopTime 	133.2
scalar RSUScenario.node[8].veinsmobility 	minSpeed 	0.25808881941368
scalar RSUScenario.node[8].veinsmobility 	maxSpeed 	31.289426738252
scalar RSUScenario.node[8].veinsmobility 	totalDistance 	3275.8717167861
scalar RSUScenario.node[8].veinsmobility 	totalCO2Emission 	726.14528929537
scalar RSUScenario.node[7].nic.phy80211p 	busyTime 	0.039484642582623
scalar RSUScenario.node[7].nic.mac1609_4 	throughputMetricMac 	149.62295352307
scalar RSUScenario.node[7].nic.mac1609_4 	throughputMbps 	0.15804025398302
scalar RSUScenario.node[7].nic.mac1609_4 	throughputControlMbps 	0
scalar RSUScenario.node[7].nic.mac1609_4 	receivedFramesLowerMsg 	20939
scalar RSUScenario.node[7].nic.mac1609_4 	receivedBitsLowerPackets 	0
scalar RSUScenario.node[7].nic.mac1609_4 	receivedBitsLoserWsm 	0
scalar RSUScenario.node[7].nic.mac1609_4 	packetsNotForMe 	0
scalar RSUScenario.node[7].nic.mac1609_4 	receivedTotalBits 	22116960
scalar RSUScenario.node[7].nic.mac1609_4 	collisionsPktNonDecoded 	0
scalar RSUScenario.node[7].nic.mac1609_4 	channelUtilization 	1302
scalar RSUScenario.node[7].nic.mac1609_4 	ReceivedUnicastPackets 	0
scalar RSUScenario.node[7].nic.mac1609_4 	ReceivedBroadcasts 	20939
scalar RSUScenario.node[7].nic.mac1609_4 	SentPackets 	1302
scalar RSUScenario.node[7].nic.mac1609_4 	SNIRLostPackets 	1989
scalar RSUScenario.node[7].nic.mac1609_4 	RXTXLostPackets 	0
scalar RSUScenario.node[7].nic.mac1609_4 	TotalLostPackets 	1989
scalar RSUScenario.node[7].nic.mac1609_4 	DroppedPacketsInMac 	0
scalar RSUScenario.node[7].nic.mac1609_4 	TooLittleTime 	0
scalar RSUScenario.node[7].nic.mac1609_4 	TimesIntoBackoff 	1303
scalar RSUScenario.node[7].nic.mac1609_4 	SlotsBackoff 	1945
scalar RSUScenario.node[7].nic.mac1609_4 	NumInternalContention 	0
scalar RSUScenario.node[7].nic.mac1609_4 	totalBusyTime 	5.206982
scalar RSUScenario.node[7].nic.mac1609_4 	throughputMetricMac:last 	149.62295352307
attr source  throughputSignalMac
attr title  "throughputMetricMac, last"
scalar RSUScenario.node[7].nic.mac1609_4 	throughputMetricMac:count 	20939
attr source  throughputSignalMac
attr title  "throughputMetricMac, count"
scalar RSUScenario.node[7].nic.mac1609_4 	throughputMetricMac:sum 	2612292.0130225
attr source  throughputSignalMac
attr title  "throughputMetricMac, sum"
scalar RSUScenario.node[7].nic.mac1609_4 	throughputMetricMac:mean 	124.75724786392
attr source  throughputSignalMac
attr title  "throughputMetricMac, mean"
scalar RSUScenario.node[7].veinsmobility 	startTime 	9.9
scalar RSUScenario.node[7].veinsmobility 	totalTime 	130
scalar RSUScenario.node[7].veinsmobility 	stopTime 	140
scalar RSUScenario.node[7].veinsmobility 	minSpeed 	0.0089422332260266
scalar RSUScenario.node[7].veinsmobility 	maxSpeed 	31.289936781079
scalar RSUScenario.node[7].veinsmobility 	totalDistance 	3274.039559142
scalar RSUScenario.node[7].veinsmobility 	totalCO2Emission 	733.10154768805
scalar RSUScenario.node[11].nic.phy80211p 	busyTime 	0.042650305532611
scalar RSUScenario.node[11].nic.mac1609_4 	throughputMetricMac 	148.1584608505
scalar RSUScenario.node[11].nic.mac1609_4 	throughputMbps 	0.15649315516546
scalar RSUScenario.node[11].nic.mac1609_4 	throughputControlMbps 	0
scalar RSUScenario.node[11].nic.mac1609_4 	receivedFramesLowerMsg 	21060
scalar RSUScenario.node[11].nic.mac1609_4 	receivedBitsLowerPackets 	0
scalar RSUScenario.node[11].nic.mac1609_4 	receivedBitsLoserWsm 	0
scalar RSUScenario.node[11].nic.mac1609_4 	packetsNotForMe 	0
scalar RSUScenario.node[11].nic.mac1609_4 	receivedTotalBits 	22244736
scalar RSUScenario.node[11].nic.mac1609_4 	collisionsPktNonDecoded 	0
scalar RSUScenario.node[11].nic.mac1609_4 	channelUtilization 	1212
scalar RSUScenario.node[11].nic.mac1609_4 	ReceivedUnicastPackets 	0
scalar RSUScenario.node[11].nic.mac1609_4 	ReceivedBroadcasts 	21060
scalar RSUScenario.node[11].nic.mac1609_4 	SentPackets 	1212
scalar RSUScenario.node[11].nic.mac1609_4 	SNIRLostPackets 	1993
scalar RSUScenario.node[11].nic.mac1609_4 	RXTXLostPackets 	0
scalar RSUScenario.node[11].nic.mac1609_4 	TotalLostPackets 	1993
scalar RSUScenario.node[11].nic.mac1609_4 	DroppedPacketsInMac 	0
scalar RSUScenario.node[11].nic.mac1609_4 	TooLittleTime 	0
scalar RSUScenario.node[11].nic.mac1609_4 	TimesIntoBackoff 	1212
scalar RSUScenario.node[11].nic.mac1609_4 	SlotsBackoff 	1799
scalar RSUScenario.node[11].nic.mac1609_4 	NumInternalContention 	0
scalar RSUScenario.node[11].nic.mac1609_4 	totalBusyTime 	5.214284
scalar RSUScenario.node[11].nic.mac1609_4 	throughputMetricMac:last 	148.1584608505
attr source  throughputSignalMac
attr title  "throughputMetricMac, last"
scalar RSUScenario.node[11].nic.mac1609_4 	throughputMetricMac:count 	21060
attr source  throughputSignalMac
attr title  "throughputMetricMac, count"
scalar RSUScenario.node[11].nic.mac1609_4 	throughputMetricMac:sum 	2482530.7232269
attr source  throughputSignalMac
attr title  "throughputMetricMac, sum"
scalar RSUScenario.node[11].nic.mac1609_4 	throughputMetricMac:mean 	117.87895172018
attr source  throughputSignalMac
attr title  "throughputMetricMac, mean"
scalar RSUScenario.node[11].veinsmobility 	startTime 	21.1
scalar RSUScenario.node[11].veinsmobility 	totalTime 	121
scalar RSUScenario.node[11].veinsmobility 	stopTime 	142.2
scalar RSUScenario.node[11].veinsmobility 	minSpeed 	0.25902033208427
scalar RSUScenario.node[11].veinsmobility 	maxSpeed 	31.289606555924
scalar RSUScenario.node[11].veinsmobility 	totalDistance 	3276.3389898026
scalar RSUScenario.node[11].veinsmobility 	totalCO2Emission 	719.48973771641
scalar RSUScenario.node[9].nic.phy80211p 	busyTime 	0.040876325301201
scalar RSUScenario.node[9].nic.mac1609_4 	throughputMetricMac 	155.04399464344
scalar RSUScenario.node[9].nic.mac1609_4 	throughputMbps 	0.16376279614597
scalar RSUScenario.node[9].nic.mac1609_4 	throughputControlMbps 	0
scalar RSUScenario.node[9].nic.mac1609_4 	receivedFramesLowerMsg 	22938
scalar RSUScenario.node[9].nic.mac1609_4 	receivedBitsLowerPackets 	0
scalar RSUScenario.node[9].nic.mac1609_4 	receivedBitsLoserWsm 	0
scalar RSUScenario.node[9].nic.mac1609_4 	packetsNotForMe 	0
scalar RSUScenario.node[9].nic.mac1609_4 	receivedTotalBits 	24227904
scalar RSUScenario.node[9].nic.mac1609_4 	collisionsPktNonDecoded 	0
scalar RSUScenario.node[9].nic.mac1609_4 	channelUtilization 	1329
scalar RSUScenario.node[9].nic.mac1609_4 	ReceivedUnicastPackets 	0
scalar RSUScenario.node[9].nic.mac1609_4 	ReceivedBroadcasts 	22938
scalar RSUScenario.node[9].nic.mac1609_4 	SentPackets 	1329
scalar RSUScenario.node[9].nic.mac1609_4 	SNIRLostPackets 	1291
scalar RSUScenario.node[9].nic.mac1609_4 	RXTXLostPackets 	0
scalar RSUScenario.node[9].nic.mac1609_4 	TotalLostPackets 	1291
scalar RSUScenario.node[9].nic.mac1609_4 	DroppedPacketsInMac 	0
scalar RSUScenario.node[9].nic.mac1609_4 	TooLittleTime 	0
scalar RSUScenario.node[9].nic.mac1609_4 	TimesIntoBackoff 	2538
scalar RSUScenario.node[9].nic.mac1609_4 	SlotsBackoff 	3869
scalar RSUScenario.node[9].nic.mac1609_4 	NumInternalContention 	0
scalar RSUScenario.node[9].nic.mac1609_4 	totalBusyTime 	5.586028751282
scalar RSUScenario.node[9].nic.mac1609_4 	throughputMetricMac:last 	155.04399464344
attr source  throughputSignalMac
attr title  "throughputMetricMac, last"
scalar RSUScenario.node[9].nic.mac1609_4 	throughputMetricMac:count 	22938
attr source  throughputSignalMac
attr title  "throughputMetricMac, count"
scalar RSUScenario.node[9].nic.mac1609_4 	throughputMetricMac:sum 	2842451.440894
attr source  throughputSignalMac
attr title  "throughputMetricMac, sum"
scalar RSUScenario.node[9].nic.mac1609_4 	throughputMetricMac:mean 	123.91888747467
attr source  throughputSignalMac
attr title  "throughputMetricMac, mean"
scalar RSUScenario.node[9].veinsmobility 	startTime 	15.2
scalar RSUScenario.node[9].veinsmobility 	totalTime 	132.7
scalar RSUScenario.node[9].veinsmobility 	stopTime 	148
scalar RSUScenario.node[9].veinsmobility 	minSpeed 	0.010577104895261
scalar RSUScenario.node[9].veinsmobility 	maxSpeed 	31.289745033977
scalar RSUScenario.node[9].veinsmobility 	totalDistance 	3273.7889474113
scalar RSUScenario.node[9].veinsmobility 	totalCO2Emission 	734.91951599048
scalar RSUScenario.node[0].nic.phy80211p 	busyTime 	0.037934824797842
scalar RSUScenario.node[0].nic.mac1609_4 	throughputMetricMac 	160.57230323734
scalar RSUScenario.node[0].nic.mac1609_4 	throughputMbps 	0.16960056788821
scalar RSUScenario.node[0].nic.mac1609_4 	throughputControlMbps 	0
scalar RSUScenario.node[0].nic.mac1609_4 	receivedFramesLowerMsg 	23836
scalar RSUScenario.node[0].nic.mac1609_4 	receivedBitsLowerPackets 	0
scalar RSUScenario.node[0].nic.mac1609_4 	receivedBitsLoserWsm 	0
scalar RSUScenario.node[0].nic.mac1609_4 	packetsNotForMe 	0
scalar RSUScenario.node[0].nic.mac1609_4 	receivedTotalBits 	25176192
scalar RSUScenario.node[0].nic.mac1609_4 	collisionsPktNonDecoded 	0
scalar RSUScenario.node[0].nic.mac1609_4 	channelUtilization 	1485
scalar RSUScenario.node[0].nic.mac1609_4 	ReceivedUnicastPackets 	0
scalar RSUScenario.node[0].nic.mac1609_4 	ReceivedBroadcasts 	23836
scalar RSUScenario.node[0].nic.mac1609_4 	SentPackets 	1485
scalar RSUScenario.node[0].nic.mac1609_4 	SNIRLostPackets 	1291
scalar RSUScenario.node[0].nic.mac1609_4 	RXTXLostPackets 	0
scalar RSUScenario.node[0].nic.mac1609_4 	TotalLostPackets 	1291
scalar RSUScenario.node[0].nic.mac1609_4 	DroppedPacketsInMac 	0
scalar RSUScenario.node[0].nic.mac1609_4 	TooLittleTime 	0
scalar RSUScenario.node[0].nic.mac1609_4 	TimesIntoBackoff 	1486
scalar RSUScenario.node[0].nic.mac1609_4 	SlotsBackoff 	2180
scalar RSUScenario.node[0].nic.mac1609_4 	NumInternalContention 	0
scalar RSUScenario.node[0].nic.mac1609_4 	totalBusyTime 	5.82272604745
scalar RSUScenario.node[0].nic.mac1609_4 	throughputMetricMac:last 	160.57230323734
attr source  throughputSignalMac
attr title  "throughputMetricMac, last"
scalar RSUScenario.node[0].nic.mac1609_4 	throughputMetricMac:count 	23836
attr source  throughputSignalMac
attr title  "throughputMetricMac, count"
scalar RSUScenario.node[0].nic.mac1609_4 	throughputMetricMac:sum 	3178808.8365254
attr source  throughputSignalMac
attr title  "throughputMetricMac, sum"
scalar RSUScenario.node[0].nic.mac1609_4 	throughputMetricMac:mean 	133.36167295374
attr source  throughputSignalMac
attr title  "throughputMetricMac, mean"
scalar RSUScenario.node[0].veinsmobility 	startTime 	0.1
scalar RSUScenario.node[0].veinsmobility 	totalTime 	148.3
scalar RSUScenario.node[0].veinsmobility 	stopTime 	148.5
scalar RSUScenario.node[0].veinsmobility 	minSpeed 	0
scalar RSUScenario.node[0].veinsmobility 	maxSpeed 	31.289894360469
scalar RSUScenario.node[0].veinsmobility 	totalDistance 	3270.2069133462
scalar RSUScenario.node[0].veinsmobility 	totalCO2Emission 	762.47760069728
scalar RSUScenario.node[13].nic.phy80211p 	busyTime 	0.042489754500812
scalar RSUScenario.node[13].nic.mac1609_4 	throughputMetricMac 	146.6457306768
scalar RSUScenario.node[13].nic.mac1609_4 	throughputMbps 	0.15487590236519
scalar RSUScenario.node[13].nic.mac1609_4 	throughputControlMbps 	0
scalar RSUScenario.node[13].nic.mac1609_4 	receivedFramesLowerMsg 	21886
scalar RSUScenario.node[13].nic.mac1609_4 	receivedBitsLowerPackets 	0
scalar RSUScenario.node[13].nic.mac1609_4 	receivedBitsLoserWsm 	0
scalar RSUScenario.node[13].nic.mac1609_4 	packetsNotForMe 	0
scalar RSUScenario.node[13].nic.mac1609_4 	receivedTotalBits 	23114304
scalar RSUScenario.node[13].nic.mac1609_4 	collisionsPktNonDecoded 	0
scalar RSUScenario.node[13].nic.mac1609_4 	channelUtilization 	1223
scalar RSUScenario.node[13].nic.mac1609_4 	ReceivedUnicastPackets 	0
scalar RSUScenario.node[13].nic.mac1609_4 	ReceivedBroadcasts 	21886
scalar RSUScenario.node[13].nic.mac1609_4 	SentPackets 	1223
scalar RSUScenario.node[13].nic.mac1609_4 	SNIRLostPackets 	1291
scalar RSUScenario.node[13].nic.mac1609_4 	RXTXLostPackets 	0
scalar RSUScenario.node[13].nic.mac1609_4 	TotalLostPackets 	1291
scalar RSUScenario.node[13].nic.mac1609_4 	DroppedPacketsInMac 	0
scalar RSUScenario.node[13].nic.mac1609_4 	TooLittleTime 	0
scalar RSUScenario.node[13].nic.mac1609_4 	TimesIntoBackoff 	1360
scalar RSUScenario.node[13].nic.mac1609_4 	SlotsBackoff 	2141
scalar RSUScenario.node[13].nic.mac1609_4 	NumInternalContention 	0
scalar RSUScenario.node[13].nic.mac1609_4 	totalBusyTime 	5.333029776903
scalar RSUScenario.node[13].nic.mac1609_4 	throughputMetricMac:last 	146.6457306768
attr source  throughputSignalMac
attr title  "throughputMetricMac, last"
scalar RSUScenario.node[13].nic.mac1609_4 	throughputMetricMac:count 	21886
attr source  throughputSignalMac
attr title  "throughputMetricMac, count"
scalar RSUScenario.node[13].nic.mac1609_4 	throughputMetricMac:sum 	2461532.697128
attr source  throughputSignalMac
attr title  "throughputMetricMac, sum"
scalar RSUScenario.node[13].nic.mac1609_4 	throughputMetricMac:mean 	112.47065234068
attr source  throughputSignalMac
attr title  "throughputMetricMac, mean"
scalar RSUScenario.node[13].veinsmobility 	startTime 	27.1
scalar RSUScenario.node[13].veinsmobility 	totalTime 	122.1
scalar RSUScenario.node[13].veinsmobility 	stopTime 	149.3
scalar RSUScenario.node[13].veinsmobility 	minSpeed 	0.2483948068053
scalar RSUScenario.node[13].veinsmobility 	maxSpeed 	31.289970024223
scalar RSUScenario.node[13].veinsmobility 	totalDistance 	3274.6448186127
scalar RSUScenario.node[13].veinsmobility 	totalCO2Emission 	727.71883963533
scalar RSUScenario.node[12].nic.phy80211p 	busyTime 	0.042165584313721
scalar RSUScenario.node[12].nic.mac1609_4 	throughputMetricMac 	149.84424988902
scalar RSUScenario.node[12].nic.mac1609_4 	throughputMbps 	0.15825326530319
scalar RSUScenario.node[12].nic.mac1609_4 	throughputControlMbps 	0
scalar RSUScenario.node[12].nic.mac1609_4 	receivedFramesLowerMsg 	22708
scalar RSUScenario.node[12].nic.mac1609_4 	receivedBitsLowerPackets 	0
scalar RSUScenario.node[12].nic.mac1609_4 	receivedBitsLoserWsm 	0
scalar RSUScenario.node[12].nic.mac1609_4 	packetsNotForMe 	0
scalar RSUScenario.node[12].nic.mac1609_4 	receivedTotalBits 	23982336
scalar RSUScenario.node[12].nic.mac1609_4 	collisionsPktNonDecoded 	0
scalar RSUScenario.node[12].nic.mac1609_4 	channelUtilization 	1276
scalar RSUScenario.node[12].nic.mac1609_4 	ReceivedUnicastPackets 	0
scalar RSUScenario.node[12].nic.mac1609_4 	ReceivedBroadcasts 	22708
scalar RSUScenario.node[12].nic.mac1609_4 	SentPackets 	1276
scalar RSUScenario.node[12].nic.mac1609_4 	SNIRLostPackets 	1290
scalar RSUScenario.node[12].nic.mac1609_4 	RXTXLostPackets 	1
scalar RSUScenario.node[12].nic.mac1609_4 	TotalLostPackets 	1291
scalar RSUScenario.node[12].nic.mac1609_4 	DroppedPacketsInMac 	0
scalar RSUScenario.node[12].nic.mac1609_4 	TooLittleTime 	0
scalar RSUScenario.node[12].nic.mac1609_4 	TimesIntoBackoff 	1277
scalar RSUScenario.node[12].nic.mac1609_4 	SlotsBackoff 	1865
scalar RSUScenario.node[12].nic.mac1609_4 	NumInternalContention 	0
scalar RSUScenario.node[12].nic.mac1609_4 	totalBusyTime 	5.52755381502
scalar RSUScenario.node[12].nic.mac1609_4 	throughputMetricMac:last 	149.84424988902
attr source  throughputSignalMac
attr title  "throughputMetricMac, last"
scalar RSUScenario.node[12].nic.mac1609_4 	throughputMetricMac:count 	22708
attr source  throughputSignalMac
attr title  "throughputMetricMac, count"
scalar RSUScenario.node[12].nic.mac1609_4 	throughputMetricMac:sum 	2658804.750752
attr source  throughputSignalMac
attr title  "throughputMetricMac, sum"
scalar RSUScenario.node[12].nic.mac1609_4 	throughputMetricMac:mean 	117.08669855346
attr source  throughputSignalMac
attr title  "throughputMetricMac, mean"
scalar RSUScenario.node[12].veinsmobility 	startTime 	24.1
scalar RSUScenario.node[12].veinsmobility 	totalTime 	127.4
scalar RSUScenario.node[12].veinsmobility 	stopTime 	151.6
scalar RSUScenario.node[12].veinsmobility 	minSpeed 	0.010410139816174
scalar RSUScenario.node[12].veinsmobility 	maxSpeed 	31.28997836269
scalar RSUScenario.node[12].veinsmobility 	totalDistance 	3274.2473155197
scalar RSUScenario.node[12].veinsmobility 	totalCO2Emission 	730.09540690136
scalar RSUScenario.node[15].nic.phy80211p 	busyTime 	0.043580115990052
scalar RSUScenario.node[15].nic.mac1609_4 	throughputMetricMac 	144.32431173569
scalar RSUScenario.node[15].nic.mac1609_4 	throughputMbps 	0.15242395679957
scalar RSUScenario.node[15].nic.mac1609_4 	throughputControlMbps 	0
scalar RSUScenario.node[15].nic.mac1609_4 	receivedFramesLowerMsg 	22189
scalar RSUScenario.node[15].nic.mac1609_4 	receivedBitsLowerPackets 	0
scalar RSUScenario.node[15].nic.mac1609_4 	receivedBitsLoserWsm 	0
scalar RSUScenario.node[15].nic.mac1609_4 	packetsNotForMe 	0
scalar RSUScenario.node[15].nic.mac1609_4 	receivedTotalBits 	23434272
scalar RSUScenario.node[15].nic.mac1609_4 	collisionsPktNonDecoded 	0
scalar RSUScenario.node[15].nic.mac1609_4 	channelUtilization 	1208
scalar RSUScenario.node[15].nic.mac1609_4 	ReceivedUnicastPackets 	0
scalar RSUScenario.node[15].nic.mac1609_4 	ReceivedBroadcasts 	22189
scalar RSUScenario.node[15].nic.mac1609_4 	SentPackets 	1208
scalar RSUScenario.node[15].nic.mac1609_4 	SNIRLostPackets 	1291
scalar RSUScenario.node[15].nic.mac1609_4 	RXTXLostPackets 	0
scalar RSUScenario.node[15].nic.mac1609_4 	TotalLostPackets 	1291
scalar RSUScenario.node[15].nic.mac1609_4 	DroppedPacketsInMac 	0
scalar RSUScenario.node[15].nic.mac1609_4 	TooLittleTime 	0
scalar RSUScenario.node[15].nic.mac1609_4 	TimesIntoBackoff 	1208
scalar RSUScenario.node[15].nic.mac1609_4 	SlotsBackoff 	1795
scalar RSUScenario.node[15].nic.mac1609_4 	NumInternalContention 	0
scalar RSUScenario.node[15].nic.mac1609_4 	totalBusyTime 	5.408797144815
scalar RSUScenario.node[15].nic.mac1609_4 	throughputMetricMac:last 	144.32431173569
attr source  throughputSignalMac
attr title  "throughputMetricMac, last"
scalar RSUScenario.node[15].nic.mac1609_4 	throughputMetricMac:count 	22189
attr source  throughputSignalMac
attr title  "throughputMetricMac, count"
scalar RSUScenario.node[15].nic.mac1609_4 	throughputMetricMac:sum 	2429109.1836567
attr source  throughputSignalMac
attr title  "throughputMetricMac, sum"
scalar RSUScenario.node[15].nic.mac1609_4 	throughputMetricMac:mean 	109.47357626106
attr source  throughputSignalMac
attr title  "throughputMetricMac, mean"
scalar RSUScenario.node[15].veinsmobility 	startTime 	33.1
scalar RSUScenario.node[15].veinsmobility 	totalTime 	120.6
scalar RSUScenario.node[15].veinsmobility 	stopTime 	153.8
scalar RSUScenario.node[15].veinsmobility 	minSpeed 	0.25809441138431
scalar RSUScenario.node[15].veinsmobility 	maxSpeed 	31.289936174387
scalar RSUScenario.node[15].veinsmobility 	totalDistance 	3275.8863340606
scalar RSUScenario.node[15].veinsmobility 	totalCO2Emission 	710.20287898489
scalar RSUScenario.node[14].nic.phy80211p 	busyTime 	0.044246743295018
scalar RSUScenario.node[14].nic.mac1609_4 	throughputMetricMac 	156.50535918424
scalar RSUScenario.node[14].nic.mac1609_4 	throughputMbps 	0.16528500711369
scalar RSUScenario.node[14].nic.mac1609_4 	throughputControlMbps 	0
scalar RSUScenario.node[14].nic.mac1609_4 	receivedFramesLowerMsg 	25126
scalar RSUScenario.node[14].nic.mac1609_4 	receivedBitsLowerPackets 	0
scalar RSUScenario.node[14].nic.mac1609_4 	receivedBitsLoserWsm 	0
scalar RSUScenario.node[14].nic.mac1609_4 	packetsNotForMe 	0
scalar RSUScenario.node[14].nic.mac1609_4 	receivedTotalBits 	26535520
scalar RSUScenario.node[14].nic.mac1609_4 	collisionsPktNonDecoded 	0
scalar RSUScenario.node[14].nic.mac1609_4 	channelUtilization 	1306
scalar RSUScenario.node[14].nic.mac1609_4 	ReceivedUnicastPackets 	0
scalar RSUScenario.node[14].nic.mac1609_4 	ReceivedBroadcasts 	25126
scalar RSUScenario.node[14].nic.mac1609_4 	SentPackets 	1306
scalar RSUScenario.node[14].nic.mac1609_4 	SNIRLostPackets 	649
scalar RSUScenario.node[14].nic.mac1609_4 	RXTXLostPackets 	0
scalar RSUScenario.node[14].nic.mac1609_4 	TotalLostPackets 	649
scalar RSUScenario.node[14].nic.mac1609_4 	DroppedPacketsInMac 	0
scalar RSUScenario.node[14].nic.mac1609_4 	TooLittleTime 	0
scalar RSUScenario.node[14].nic.mac1609_4 	TimesIntoBackoff 	1306
scalar RSUScenario.node[14].nic.mac1609_4 	SlotsBackoff 	1892
scalar RSUScenario.node[14].nic.mac1609_4 	NumInternalContention 	0
scalar RSUScenario.node[14].nic.mac1609_4 	totalBusyTime 	5.952214779953
scalar RSUScenario.node[14].nic.mac1609_4 	throughputMetricMac:last 	156.50535918424
attr source  throughputSignalMac
attr title  "throughputMetricMac, last"
scalar RSUScenario.node[14].nic.mac1609_4 	throughputMetricMac:count 	25126
attr source  throughputSignalMac
attr title  "throughputMetricMac, count"
scalar RSUScenario.node[14].nic.mac1609_4 	throughputMetricMac:sum 	3021644.5874712
attr source  throughputSignalMac
attr title  "throughputMetricMac, sum"
scalar RSUScenario.node[14].nic.mac1609_4 	throughputMetricMac:mean 	120.25967473817
attr source  throughputSignalMac
attr title  "throughputMetricMac, mean"
scalar RSUScenario.node[14].veinsmobility 	startTime 	30.1
scalar RSUScenario.node[14].veinsmobility 	totalTime 	130.4
scalar RSUScenario.node[14].veinsmobility 	stopTime 	160.6
scalar RSUScenario.node[14].veinsmobility 	minSpeed 	0.0035782027332314
scalar RSUScenario.node[14].veinsmobility 	maxSpeed 	31.28965975024
scalar RSUScenario.node[14].veinsmobility 	totalDistance 	3275.8586740651
scalar RSUScenario.node[14].veinsmobility 	totalCO2Emission 	729.15184782441
scalar RSUScenario.node[17].nic.phy80211p 	busyTime 	0.046317131214342
scalar RSUScenario.node[17].nic.mac1609_4 	throughputMetricMac 	152.83378933074
scalar RSUScenario.node[17].nic.mac1609_4 	throughputMbps 	0.16141048525464
scalar RSUScenario.node[17].nic.mac1609_4 	throughputControlMbps 	0
scalar RSUScenario.node[17].nic.mac1609_4 	receivedFramesLowerMsg 	24720
scalar RSUScenario.node[17].nic.mac1609_4 	receivedBitsLowerPackets 	0
scalar RSUScenario.node[17].nic.mac1609_4 	receivedBitsLoserWsm 	0
scalar RSUScenario.node[17].nic.mac1609_4 	packetsNotForMe 	0
scalar RSUScenario.node[17].nic.mac1609_4 	receivedTotalBits 	26107232
scalar RSUScenario.node[17].nic.mac1609_4 	collisionsPktNonDecoded 	0
scalar RSUScenario.node[17].nic.mac1609_4 	channelUtilization 	1228
scalar RSUScenario.node[17].nic.mac1609_4 	ReceivedUnicastPackets 	0
scalar RSUScenario.node[17].nic.mac1609_4 	ReceivedBroadcasts 	24720
scalar RSUScenario.node[17].nic.mac1609_4 	SentPackets 	1228
scalar RSUScenario.node[17].nic.mac1609_4 	SNIRLostPackets 	648
scalar RSUScenario.node[17].nic.mac1609_4 	RXTXLostPackets 	0
scalar RSUScenario.node[17].nic.mac1609_4 	TotalLostPackets 	648
scalar RSUScenario.node[17].nic.mac1609_4 	DroppedPacketsInMac 	0
scalar RSUScenario.node[17].nic.mac1609_4 	TooLittleTime 	0
scalar RSUScenario.node[17].nic.mac1609_4 	TimesIntoBackoff 	1229
scalar RSUScenario.node[17].nic.mac1609_4 	SlotsBackoff 	1814
scalar RSUScenario.node[17].nic.mac1609_4 	NumInternalContention 	0
scalar RSUScenario.node[17].nic.mac1609_4 	totalBusyTime 	5.825505775679
scalar RSUScenario.node[17].nic.mac1609_4 	throughputMetricMac:last 	152.83378933074
attr source  throughputSignalMac
attr title  "throughputMetricMac, last"
scalar RSUScenario.node[17].nic.mac1609_4 	throughputMetricMac:count 	24720
attr source  throughputSignalMac
attr title  "throughputMetricMac, count"
scalar RSUScenario.node[17].nic.mac1609_4 	throughputMetricMac:sum 	2793265.0974667
attr source  throughputSignalMac
attr title  "throughputMetricMac, sum"
scalar RSUScenario.node[17].nic.mac1609_4 	throughputMetricMac:mean 	112.99616090076
attr source  throughputSignalMac
attr title  "throughputMetricMac, mean"
scalar RSUScenario.node[17].veinsmobility 	startTime 	39.1
scalar RSUScenario.node[17].veinsmobility 	totalTime 	122.6
scalar RSUScenario.node[17].veinsmobility 	stopTime 	161.8
scalar RSUScenario.node[17].veinsmobility 	minSpeed 	0.25680212210654
scalar RSUScenario.node[17].veinsmobility 	maxSpeed 	31.28963251075
scalar RSUScenario.node[17].veinsmobility 	totalDistance 	3273.6525055421
scalar RSUScenario.node[17].veinsmobility 	totalCO2Emission 	721.96549789941
scalar RSUScenario.node[19].nic.phy80211p 	busyTime 	0.049537142857143
scalar RSUScenario.node[19].nic.mac1609_4 	throughputMetricMac 	157.00188923409
scalar RSUScenario.node[19].nic.mac1609_4 	throughputMbps 	0.16581430325208
scalar RSUScenario.node[19].nic.mac1609_4 	throughputControlMbps 	0
scalar RSUScenario.node[19].nic.mac1609_4 	receivedFramesLowerMsg 	25976
scalar RSUScenario.node[19].nic.mac1609_4 	receivedBitsLowerPackets 	0
scalar RSUScenario.node[19].nic.mac1609_4 	receivedBitsLoserWsm 	0
scalar RSUScenario.node[19].nic.mac1609_4 	packetsNotForMe 	0
scalar RSUScenario.node[19].nic.mac1609_4 	receivedTotalBits 	27434016
scalar RSUScenario.node[19].nic.mac1609_4 	collisionsPktNonDecoded 	0
scalar RSUScenario.node[19].nic.mac1609_4 	channelUtilization 	1205
scalar RSUScenario.node[19].nic.mac1609_4 	ReceivedUnicastPackets 	0
scalar RSUScenario.node[19].nic.mac1609_4 	ReceivedBroadcasts 	25976
scalar RSUScenario.node[19].nic.mac1609_4 	SentPackets 	1205
scalar RSUScenario.node[19].nic.mac1609_4 	SNIRLostPackets 	647
scalar RSUScenario.node[19].nic.mac1609_4 	RXTXLostPackets 	0
scalar RSUScenario.node[19].nic.mac1609_4 	TotalLostPackets 	647
scalar RSUScenario.node[19].nic.mac1609_4 	DroppedPacketsInMac 	0
scalar RSUScenario.node[19].nic.mac1609_4 	TooLittleTime 	0
scalar RSUScenario.node[19].nic.mac1609_4 	TimesIntoBackoff 	1205
scalar RSUScenario.node[19].nic.mac1609_4 	SlotsBackoff 	1765
scalar RSUScenario.node[19].nic.mac1609_4 	NumInternalContention 	0
scalar RSUScenario.node[19].nic.mac1609_4 	totalBusyTime 	6.148981133977
scalar RSUScenario.node[19].nic.mac1609_4 	throughputMetricMac:last 	157.00188923409
attr source  throughputSignalMac
attr title  "throughputMetricMac, last"
scalar RSUScenario.node[19].nic.mac1609_4 	throughputMetricMac:count 	25976
attr source  throughputSignalMac
attr title  "throughputMetricMac, count"
scalar RSUScenario.node[19].nic.mac1609_4 	throughputMetricMac:sum 	2921104.5421463
attr source  throughputSignalMac
attr title  "throughputMetricMac, sum"
scalar RSUScenario.node[19].nic.mac1609_4 	throughputMetricMac:mean 	112.45397837027
attr source  throughputSignalMac
attr title  "throughputMetricMac, mean"
scalar RSUScenario.node[19].veinsmobility 	startTime 	45.1
scalar RSUScenario.node[19].veinsmobility 	totalTime 	120.3
scalar RSUScenario.node[19].veinsmobility 	stopTime 	165.5
scalar RSUScenario.node[19].veinsmobility 	minSpeed 	0.25139466654928
scalar RSUScenario.node[19].veinsmobility 	maxSpeed 	31.289797694366
scalar RSUScenario.node[19].veinsmobility 	totalDistance 	3273.5380750659
scalar RSUScenario.node[19].veinsmobility 	totalCO2Emission 	710.340749554
scalar RSUScenario.node[10].nic.phy80211p 	busyTime 	0.045622673796797
scalar RSUScenario.node[10].nic.mac1609_4 	throughputMetricMac 	177.8526962113
scalar RSUScenario.node[10].nic.mac1609_4 	throughputMbps 	0.18785654054252
scalar RSUScenario.node[10].nic.mac1609_4 	throughputControlMbps 	0
scalar RSUScenario.node[10].nic.mac1609_4 	receivedFramesLowerMsg 	29816
scalar RSUScenario.node[10].nic.mac1609_4 	receivedBitsLowerPackets 	0
scalar RSUScenario.node[10].nic.mac1609_4 	receivedBitsLoserWsm 	0
scalar RSUScenario.node[10].nic.mac1609_4 	packetsNotForMe 	0
scalar RSUScenario.node[10].nic.mac1609_4 	receivedTotalBits 	31493088
scalar RSUScenario.node[10].nic.mac1609_4 	collisionsPktNonDecoded 	0
scalar RSUScenario.node[10].nic.mac1609_4 	channelUtilization 	1497
scalar RSUScenario.node[10].nic.mac1609_4 	ReceivedUnicastPackets 	0
scalar RSUScenario.node[10].nic.mac1609_4 	ReceivedBroadcasts 	29816
scalar RSUScenario.node[10].nic.mac1609_4 	SentPackets 	1497
scalar RSUScenario.node[10].nic.mac1609_4 	SNIRLostPackets 	647
scalar RSUScenario.node[10].nic.mac1609_4 	RXTXLostPackets 	0
scalar RSUScenario.node[10].nic.mac1609_4 	TotalLostPackets 	647
scalar RSUScenario.node[10].nic.mac1609_4 	DroppedPacketsInMac 	0
scalar RSUScenario.node[10].nic.mac1609_4 	TooLittleTime 	0
scalar RSUScenario.node[10].nic.mac1609_4 	TimesIntoBackoff 	1497
scalar RSUScenario.node[10].nic.mac1609_4 	SlotsBackoff 	2236
scalar RSUScenario.node[10].nic.mac1609_4 	NumInternalContention 	0
scalar RSUScenario.node[10].nic.mac1609_4 	totalBusyTime 	7.168665518307
scalar RSUScenario.node[10].nic.mac1609_4 	throughputMetricMac:last 	177.8526962113
attr source  throughputSignalMac
attr title  "throughputMetricMac, last"
scalar RSUScenario.node[10].nic.mac1609_4 	throughputMetricMac:count 	29816
attr source  throughputSignalMac
attr title  "throughputMetricMac, count"
scalar RSUScenario.node[10].nic.mac1609_4 	throughputMetricMac:sum 	4153771.7893503
attr source  throughputSignalMac
attr title  "throughputMetricMac, sum"
scalar RSUScenario.node[10].nic.mac1609_4 	throughputMetricMac:mean 	139.31351587572
attr source  throughputSignalMac
attr title  "throughputMetricMac, mean"
scalar RSUScenario.node[10].veinsmobility 	startTime 	18.1
scalar RSUScenario.node[10].veinsmobility 	totalTime 	149.5
scalar RSUScenario.node[10].veinsmobility 	stopTime 	167.7
scalar RSUScenario.node[10].veinsmobility 	minSpeed 	0
scalar RSUScenario.node[10].veinsmobility 	maxSpeed 	31.289705653847
scalar RSUScenario.node[10].veinsmobility 	totalDistance 	3270.1129103056
scalar RSUScenario.node[10].veinsmobility 	totalCO2Emission 	747.06896542524
scalar RSUScenario.node[16].nic.phy80211p 	busyTime 	0.04794963855422
scalar RSUScenario.node[16].nic.mac1609_4 	throughputMetricMac 	164.50080520375
scalar RSUScenario.node[16].nic.mac1609_4 	throughputMbps 	0.17374070930239
scalar RSUScenario.node[16].nic.mac1609_4 	throughputControlMbps 	0
scalar RSUScenario.node[16].nic.mac1609_4 	receivedFramesLowerMsg 	27776
scalar RSUScenario.node[16].nic.mac1609_4 	receivedBitsLowerPackets 	0
scalar RSUScenario.node[16].nic.mac1609_4 	receivedBitsLoserWsm 	0
scalar RSUScenario.node[16].nic.mac1609_4 	packetsNotForMe 	0
scalar RSUScenario.node[16].nic.mac1609_4 	receivedTotalBits 	29336160
scalar RSUScenario.node[16].nic.mac1609_4 	collisionsPktNonDecoded 	0
scalar RSUScenario.node[16].nic.mac1609_4 	channelUtilization 	1329
scalar RSUScenario.node[16].nic.mac1609_4 	ReceivedUnicastPackets 	0
scalar RSUScenario.node[16].nic.mac1609_4 	ReceivedBroadcasts 	27776
scalar RSUScenario.node[16].nic.mac1609_4 	SentPackets 	1329
scalar RSUScenario.node[16].nic.mac1609_4 	SNIRLostPackets 	647
scalar RSUScenario.node[16].nic.mac1609_4 	RXTXLostPackets 	0
scalar RSUScenario.node[16].nic.mac1609_4 	TotalLostPackets 	647
scalar RSUScenario.node[16].nic.mac1609_4 	DroppedPacketsInMac 	0
scalar RSUScenario.node[16].nic.mac1609_4 	TooLittleTime 	0
scalar RSUScenario.node[16].nic.mac1609_4 	TimesIntoBackoff 	1330
scalar RSUScenario.node[16].nic.mac1609_4 	SlotsBackoff 	1972
scalar RSUScenario.node[16].nic.mac1609_4 	NumInternalContention 	0
scalar RSUScenario.node[16].nic.mac1609_4 	totalBusyTime 	6.521993
scalar RSUScenario.node[16].nic.mac1609_4 	throughputMetricMac:last 	164.50080520375
attr source  throughputSignalMac
attr title  "throughputMetricMac, last"
scalar RSUScenario.node[16].nic.mac1609_4 	throughputMetricMac:count 	27776
attr source  throughputSignalMac
attr title  "throughputMetricMac, count"
scalar RSUScenario.node[16].nic.mac1609_4 	throughputMetricMac:sum 	3373981.4098145
attr source  throughputSignalMac
attr title  "throughputMetricMac, sum"
scalar RSUScenario.node[16].nic.mac1609_4 	throughputMetricMac:mean 	121.47110490404
attr source  throughputSignalMac
attr title  "throughputMetricMac, mean"
scalar RSUScenario.node[16].veinsmobility 	startTime 	36.1
scalar RSUScenario.node[16].veinsmobility 	totalTime 	132.7
scalar RSUScenario.node[16].veinsmobility 	stopTime 	168.9
scalar RSUScenario.node[16].veinsmobility 	minSpeed 	0.020262644656805
scalar RSUScenario.node[16].veinsmobility 	maxSpeed 	31.289662595976
scalar RSUScenario.node[16].veinsmobility 	totalDistance 	3268.0667181694
scalar RSUScenario.node[16].veinsmobility 	totalCO2Emission 	736.41561859116
scalar RSUScenario.node[18].nic.phy80211p 	busyTime 	0.047580031298906
scalar RSUScenario.node[18].nic.mac1609_4 	throughputMetricMac 	159.15785810313
scalar RSUScenario.node[18].nic.mac1609_4 	throughputMbps 	0.1680983931431
scalar RSUScenario.node[18].nic.mac1609_4 	throughputControlMbps 	0
scalar RSUScenario.node[18].nic.mac1609_4 	receivedFramesLowerMsg 	27033
scalar RSUScenario.node[18].nic.mac1609_4 	receivedBitsLowerPackets 	0
scalar RSUScenario.node[18].nic.mac1609_4 	receivedBitsLoserWsm 	0
scalar RSUScenario.node[18].nic.mac1609_4 	packetsNotForMe 	0
scalar RSUScenario.node[18].nic.mac1609_4 	receivedTotalBits 	28551552
scalar RSUScenario.node[18].nic.mac1609_4 	collisionsPktNonDecoded 	0
scalar RSUScenario.node[18].nic.mac1609_4 	channelUtilization 	1279
scalar RSUScenario.node[18].nic.mac1609_4 	ReceivedUnicastPackets 	0
scalar RSUScenario.node[18].nic.mac1609_4 	ReceivedBroadcasts 	27033
scalar RSUScenario.node[18].nic.mac1609_4 	SentPackets 	1279
scalar RSUScenario.node[18].nic.mac1609_4 	SNIRLostPackets 	109
scalar RSUScenario.node[18].nic.mac1609_4 	RXTXLostPackets 	1
scalar RSUScenario.node[18].nic.mac1609_4 	TotalLostPackets 	110
scalar RSUScenario.node[18].nic.mac1609_4 	DroppedPacketsInMac 	0
scalar RSUScenario.node[18].nic.mac1609_4 	TooLittleTime 	0
scalar RSUScenario.node[18].nic.mac1609_4 	TimesIntoBackoff 	1280
scalar RSUScenario.node[18].nic.mac1609_4 	SlotsBackoff 	1905
scalar RSUScenario.node[18].nic.mac1609_4 	NumInternalContention 	0
scalar RSUScenario.node[18].nic.mac1609_4 	totalBusyTime 	6.439223337692
scalar RSUScenario.node[18].nic.mac1609_4 	throughputMetricMac:last 	159.15785810313
attr source  throughputSignalMac
attr title  "throughputMetricMac, last"
scalar RSUScenario.node[18].nic.mac1609_4 	throughputMetricMac:count 	27033
attr source  throughputSignalMac
attr title  "throughputMetricMac, count"
scalar RSUScenario.node[18].nic.mac1609_4 	throughputMetricMac:sum 	3129603.9180017
attr source  throughputSignalMac
attr title  "throughputMetricMac, sum"
scalar RSUScenario.node[18].nic.mac1609_4 	throughputMetricMac:mean 	115.76975984914
attr source  throughputSignalMac
attr title  "throughputMetricMac, mean"
scalar RSUScenario.node[18].veinsmobility 	startTime 	42.1
scalar RSUScenario.node[18].veinsmobility 	totalTime 	127.7
scalar RSUScenario.node[18].veinsmobility 	stopTime 	169.9
scalar RSUScenario.node[18].veinsmobility 	minSpeed 	0.16621129165392
scalar RSUScenario.node[18].veinsmobility 	maxSpeed 	31.28993709066
scalar RSUScenario.node[18].veinsmobility 	totalDistance 	3270.9395075763
scalar RSUScenario.node[18].veinsmobility 	totalCO2Emission 	720.44904964562
scalar RSUScenario.node[21].nic.phy80211p 	busyTime 	0.048379337748344
scalar RSUScenario.node[21].nic.mac1609_4 	throughputMetricMac 	151.77168276046
scalar RSUScenario.node[21].nic.mac1609_4 	throughputMbps 	0.16029696620509
scalar RSUScenario.node[21].nic.mac1609_4 	throughputControlMbps 	0
scalar RSUScenario.node[21].nic.mac1609_4 	receivedFramesLowerMsg 	26082
scalar RSUScenario.node[21].nic.mac1609_4 	receivedBitsLowerPackets 	0
scalar RSUScenario.node[21].nic.mac1609_4 	receivedBitsLoserWsm 	0
scalar RSUScenario.node[21].nic.mac1609_4 	packetsNotForMe 	0
scalar RSUScenario.node[21].nic.mac1609_4 	receivedTotalBits 	27547072
scalar RSUScenario.node[21].nic.mac1609_4 	collisionsPktNonDecoded 	0
scalar RSUScenario.node[21].nic.mac1609_4 	channelUtilization 	1209
scalar RSUScenario.node[21].nic.mac1609_4 	ReceivedUnicastPackets 	0
scalar RSUScenario.node[21].nic.mac1609_4 	ReceivedBroadcasts 	26082
scalar RSUScenario.node[21].nic.mac1609_4 	SentPackets 	1209
scalar RSUScenario.node[21].nic.mac1609_4 	SNIRLostPackets 	4
scalar RSUScenario.node[21].nic.mac1609_4 	RXTXLostPackets 	0
scalar RSUScenario.node[21].nic.mac1609_4 	TotalLostPackets 	4
scalar RSUScenario.node[21].nic.mac1609_4 	DroppedPacketsInMac 	0
scalar RSUScenario.node[21].nic.mac1609_4 	TooLittleTime 	0
scalar RSUScenario.node[21].nic.mac1609_4 	TimesIntoBackoff 	1209
scalar RSUScenario.node[21].nic.mac1609_4 	SlotsBackoff 	1825
scalar RSUScenario.node[21].nic.mac1609_4 	NumInternalContention 	0
scalar RSUScenario.node[21].nic.mac1609_4 	totalBusyTime 	6.297644402499
scalar RSUScenario.node[21].nic.mac1609_4 	throughputMetricMac:last 	151.77168276046
attr source  throughputSignalMac
attr title  "throughputMetricMac, last"
scalar RSUScenario.node[21].nic.mac1609_4 	throughputMetricMac:count 	26082
attr source  throughputSignalMac
attr title  "throughputMetricMac, count"
scalar RSUScenario.node[21].nic.mac1609_4 	throughputMetricMac:sum 	2820264.4630487
attr source  throughputSignalMac
attr title  "throughputMetricMac, sum"
scalar RSUScenario.node[21].nic.mac1609_4 	throughputMetricMac:mean 	108.13068257989
attr source  throughputSignalMac
attr title  "throughputMetricMac, mean"
scalar RSUScenario.node[21].veinsmobility 	startTime 	51.1
scalar RSUScenario.node[21].veinsmobility 	totalTime 	120.7
scalar RSUScenario.node[21].veinsmobility 	stopTime 	171.9
scalar RSUScenario.node[21].veinsmobility 	minSpeed 	0.25963777161622
scalar RSUScenario.node[21].veinsmobility 	maxSpeed 	31.289799459716
scalar RSUScenario.node[21].veinsmobility 	totalDistance 	3274.1419603713
scalar RSUScenario.node[21].veinsmobility 	totalCO2Emission 	712.37338533044
scalar RSUScenario.node[23].nic.phy80211p 	busyTime 	0.049185804311774
scalar RSUScenario.node[23].nic.mac1609_4 	throughputMetricMac 	149.01752510605
scalar RSUScenario.node[23].nic.mac1609_4 	throughputMbps 	0.15738772460249
scalar RSUScenario.node[23].nic.mac1609_4 	throughputControlMbps 	0
scalar RSUScenario.node[23].nic.mac1609_4 	receivedFramesLowerMsg 	26473
scalar RSUScenario.node[23].nic.mac1609_4 	receivedBitsLowerPackets 	0
scalar RSUScenario.node[23].nic.mac1609_4 	receivedBitsLoserWsm 	0
scalar RSUScenario.node[23].nic.mac1609_4 	packetsNotForMe 	0
scalar RSUScenario.node[23].nic.mac1609_4 	receivedTotalBits 	27959968
scalar RSUScenario.node[23].nic.mac1609_4 	collisionsPktNonDecoded 	0
scalar RSUScenario.node[23].nic.mac1609_4 	channelUtilization 	1207
scalar RSUScenario.node[23].nic.mac1609_4 	ReceivedUnicastPackets 	0
scalar RSUScenario.node[23].nic.mac1609_4 	ReceivedBroadcasts 	26473
scalar RSUScenario.node[23].nic.mac1609_4 	SentPackets 	1207
scalar RSUScenario.node[23].nic.mac1609_4 	SNIRLostPackets 	4
scalar RSUScenario.node[23].nic.mac1609_4 	RXTXLostPackets 	0
scalar RSUScenario.node[23].nic.mac1609_4 	TotalLostPackets 	4
scalar RSUScenario.node[23].nic.mac1609_4 	DroppedPacketsInMac 	0
scalar RSUScenario.node[23].nic.mac1609_4 	TooLittleTime 	0
scalar RSUScenario.node[23].nic.mac1609_4 	TimesIntoBackoff 	1208
scalar RSUScenario.node[23].nic.mac1609_4 	SlotsBackoff 	1795
scalar RSUScenario.node[23].nic.mac1609_4 	NumInternalContention 	0
scalar RSUScenario.node[23].nic.mac1609_4 	totalBusyTime 	6.312246535985
scalar RSUScenario.node[23].nic.mac1609_4 	throughputMetricMac:last 	149.01752510605
attr source  throughputSignalMac
attr title  "throughputMetricMac, last"
scalar RSUScenario.node[23].nic.mac1609_4 	throughputMetricMac:count 	26473
attr source  throughputSignalMac
attr title  "throughputMetricMac, count"
scalar RSUScenario.node[23].nic.mac1609_4 	throughputMetricMac:sum 	2776580.2132887
attr source  throughputSignalMac
attr title  "throughputMetricMac, sum"
scalar RSUScenario.node[23].nic.mac1609_4 	throughputMetricMac:mean 	104.88347422992
attr source  throughputSignalMac
attr title  "throughputMetricMac, mean"
scalar RSUScenario.node[23].veinsmobility 	startTime 	57.1
scalar RSUScenario.node[23].veinsmobility 	totalTime 	120.5
scalar RSUScenario.node[23].veinsmobility 	stopTime 	177.7
scalar RSUScenario.node[23].veinsmobility 	minSpeed 	0.25511248833244
scalar RSUScenario.node[23].veinsmobility 	maxSpeed 	31.289924988581
scalar RSUScenario.node[23].veinsmobility 	totalDistance 	3273.5843569146
scalar RSUScenario.node[23].veinsmobility 	totalCO2Emission 	708.1905285028
scalar RSUScenario.node[22].nic.phy80211p 	busyTime 	0.048563489096575
scalar RSUScenario.node[22].nic.mac1609_4 	throughputMetricMac 	152.52925751394
scalar RSUScenario.node[22].nic.mac1609_4 	throughputMbps 	0.16109545057451
scalar RSUScenario.node[22].nic.mac1609_4 	throughputControlMbps 	0
scalar RSUScenario.node[22].nic.mac1609_4 	receivedFramesLowerMsg 	27829
scalar RSUScenario.node[22].nic.mac1609_4 	receivedBitsLowerPackets 	0
scalar RSUScenario.node[22].nic.mac1609_4 	receivedBitsLoserWsm 	0
scalar RSUScenario.node[22].nic.mac1609_4 	packetsNotForMe 	0
scalar RSUScenario.node[22].nic.mac1609_4 	receivedTotalBits 	29391904
scalar RSUScenario.node[22].nic.mac1609_4 	collisionsPktNonDecoded 	0
scalar RSUScenario.node[22].nic.mac1609_4 	channelUtilization 	1284
scalar RSUScenario.node[22].nic.mac1609_4 	ReceivedUnicastPackets 	0
scalar RSUScenario.node[22].nic.mac1609_4 	ReceivedBroadcasts 	27829
scalar RSUScenario.node[22].nic.mac1609_4 	SentPackets 	1284
scalar RSUScenario.node[22].nic.mac1609_4 	SNIRLostPackets 	4
scalar RSUScenario.node[22].nic.mac1609_4 	RXTXLostPackets 	0
scalar RSUScenario.node[22].nic.mac1609_4 	TotalLostPackets 	4
scalar RSUScenario.node[22].nic.mac1609_4 	DroppedPacketsInMac 	0
scalar RSUScenario.node[22].nic.mac1609_4 	TooLittleTime 	0
scalar RSUScenario.node[22].nic.mac1609_4 	TimesIntoBackoff 	2568
scalar RSUScenario.node[22].nic.mac1609_4 	SlotsBackoff 	1945
scalar RSUScenario.node[22].nic.mac1609_4 	NumInternalContention 	0
scalar RSUScenario.node[22].nic.mac1609_4 	totalBusyTime 	6.612761126745
scalar RSUScenario.node[22].nic.mac1609_4 	throughputMetricMac:last 	152.52925751394
attr source  throughputSignalMac
attr title  "throughputMetricMac, last"
scalar RSUScenario.node[22].nic.mac1609_4 	throughputMetricMac:count 	27829
attr source  throughputSignalMac
attr title  "throughputMetricMac, count"
scalar RSUScenario.node[22].nic.mac1609_4 	throughputMetricMac:sum 	3035215.4777903
attr source  throughputSignalMac
attr title  "throughputMetricMac, sum"
scalar RSUScenario.node[22].nic.mac1609_4 	throughputMetricMac:mean 	109.06663831939
attr source  throughputSignalMac
attr title  "throughputMetricMac, mean"
scalar RSUScenario.node[22].veinsmobility 	startTime 	54.1
scalar RSUScenario.node[22].veinsmobility 	totalTime 	128.3
scalar RSUScenario.node[22].veinsmobility 	stopTime 	182.5
scalar RSUScenario.node[22].veinsmobility 	minSpeed 	0.0020026044022595
scalar RSUScenario.node[22].veinsmobility 	maxSpeed 	31.289999478573
scalar RSUScenario.node[22].veinsmobility 	totalDistance 	3276.3401185964
scalar RSUScenario.node[22].veinsmobility 	totalCO2Emission 	721.10240322469
scalar RSUScenario.node[25].nic.phy80211p 	busyTime 	0.046835716639207
scalar RSUScenario.node[25].nic.mac1609_4 	throughputMetricMac 	137.58100545427
scalar RSUScenario.node[25].nic.mac1609_4 	throughputMbps 	0.14531104542647
scalar RSUScenario.node[25].nic.mac1609_4 	throughputControlMbps 	0
scalar RSUScenario.node[25].nic.mac1609_4 	receivedFramesLowerMsg 	25376
scalar RSUScenario.node[25].nic.mac1609_4 	receivedBitsLowerPackets 	0
scalar RSUScenario.node[25].nic.mac1609_4 	receivedBitsLoserWsm 	0
scalar RSUScenario.node[25].nic.mac1609_4 	packetsNotForMe 	0
scalar RSUScenario.node[25].nic.mac1609_4 	receivedTotalBits 	26801760
scalar RSUScenario.node[25].nic.mac1609_4 	collisionsPktNonDecoded 	0
scalar RSUScenario.node[25].nic.mac1609_4 	channelUtilization 	1214
scalar RSUScenario.node[25].nic.mac1609_4 	ReceivedUnicastPackets 	0
scalar RSUScenario.node[25].nic.mac1609_4 	ReceivedBroadcasts 	25376
scalar RSUScenario.node[25].nic.mac1609_4 	SentPackets 	1214
scalar RSUScenario.node[25].nic.mac1609_4 	SNIRLostPackets 	3
scalar RSUScenario.node[25].nic.mac1609_4 	RXTXLostPackets 	0
scalar RSUScenario.node[25].nic.mac1609_4 	TotalLostPackets 	3
scalar RSUScenario.node[25].nic.mac1609_4 	DroppedPacketsInMac 	0
scalar RSUScenario.node[25].nic.mac1609_4 	TooLittleTime 	0
scalar RSUScenario.node[25].nic.mac1609_4 	TimesIntoBackoff 	2428
scalar RSUScenario.node[25].nic.mac1609_4 	SlotsBackoff 	1844
scalar RSUScenario.node[25].nic.mac1609_4 	NumInternalContention 	0
scalar RSUScenario.node[25].nic.mac1609_4 	totalBusyTime 	6.203574151051
scalar RSUScenario.node[25].nic.mac1609_4 	throughputMetricMac:last 	137.58100545427
attr source  throughputSignalMac
attr title  "throughputMetricMac, last"
scalar RSUScenario.node[25].nic.mac1609_4 	throughputMetricMac:count 	25376
attr source  throughputSignalMac
attr title  "throughputMetricMac, count"
scalar RSUScenario.node[25].nic.mac1609_4 	throughputMetricMac:sum 	2457493.2347327
attr source  throughputSignalMac
attr title  "throughputMetricMac, sum"
scalar RSUScenario.node[25].nic.mac1609_4 	throughputMetricMac:mean 	96.843207547789
attr source  throughputSignalMac
attr title  "throughputMetricMac, mean"
scalar RSUScenario.node[25].veinsmobility 	startTime 	63.1
scalar RSUScenario.node[25].veinsmobility 	totalTime 	121.3
scalar RSUScenario.node[25].veinsmobility 	stopTime 	184.5
scalar RSUScenario.node[25].veinsmobility 	minSpeed 	0.25819678939763
scalar RSUScenario.node[25].veinsmobility 	maxSpeed 	31.289873845768
scalar RSUScenario.node[25].veinsmobility 	totalDistance 	3275.3153151058
scalar RSUScenario.node[25].veinsmobility 	totalCO2Emission 	712.97891637757
scalar RSUScenario.node[27].nic.phy80211p 	busyTime 	0.045572761747729
scalar RSUScenario.node[27].nic.mac1609_4 	throughputMetricMac 	129.61370471026
scalar RSUScenario.node[27].nic.mac1609_4 	throughputMbps 	0.1368991380708
scalar RSUScenario.node[27].nic.mac1609_4 	throughputControlMbps 	0
scalar RSUScenario.node[27].nic.mac1609_4 	receivedFramesLowerMsg 	24672
scalar RSUScenario.node[27].nic.mac1609_4 	receivedBitsLowerPackets 	0
scalar RSUScenario.node[27].nic.mac1609_4 	receivedBitsLoserWsm 	0
scalar RSUScenario.node[27].nic.mac1609_4 	packetsNotForMe 	0
scalar RSUScenario.node[27].nic.mac1609_4 	receivedTotalBits 	26058784
scalar RSUScenario.node[27].nic.mac1609_4 	collisionsPktNonDecoded 	0
scalar RSUScenario.node[27].nic.mac1609_4 	channelUtilization 	1214
scalar RSUScenario.node[27].nic.mac1609_4 	ReceivedUnicastPackets 	0
scalar RSUScenario.node[27].nic.mac1609_4 	ReceivedBroadcasts 	24672
scalar RSUScenario.node[27].nic.mac1609_4 	SentPackets 	1214
scalar RSUScenario.node[27].nic.mac1609_4 	SNIRLostPackets 	2
scalar RSUScenario.node[27].nic.mac1609_4 	RXTXLostPackets 	0
scalar RSUScenario.node[27].nic.mac1609_4 	TotalLostPackets 	2
scalar RSUScenario.node[27].nic.mac1609_4 	DroppedPacketsInMac 	0
scalar RSUScenario.node[27].nic.mac1609_4 	TooLittleTime 	0
scalar RSUScenario.node[27].nic.mac1609_4 	TimesIntoBackoff 	1215
scalar RSUScenario.node[27].nic.mac1609_4 	SlotsBackoff 	1791
scalar RSUScenario.node[27].nic.mac1609_4 	NumInternalContention 	0
scalar RSUScenario.node[27].nic.mac1609_4 	totalBusyTime 	5.975888088561
scalar RSUScenario.node[27].nic.mac1609_4 	throughputMetricMac:last 	129.61370471026
attr source  throughputSignalMac
attr title  "throughputMetricMac, last"
scalar RSUScenario.node[27].nic.mac1609_4 	throughputMetricMac:count 	24672
attr source  throughputSignalMac
attr title  "throughputMetricMac, count"
scalar RSUScenario.node[27].nic.mac1609_4 	throughputMetricMac:sum 	2203926.7949712
attr source  throughputSignalMac
attr title  "throughputMetricMac, sum"
scalar RSUScenario.node[27].nic.mac1609_4 	throughputMetricMac:mean 	89.329069186575
attr source  throughputSignalMac
attr title  "throughputMetricMac, mean"
scalar RSUScenario.node[27].veinsmobility 	startTime 	69.1
scalar RSUScenario.node[27].veinsmobility 	totalTime 	121.2
scalar RSUScenario.node[27].veinsmobility 	stopTime 	190.4
scalar RSUScenario.node[27].veinsmobility 	minSpeed 	0.2522267021325
scalar RSUScenario.node[27].veinsmobility 	maxSpeed 	31.289831926851
scalar RSUScenario.node[27].veinsmobility 	totalDistance 	3275.3547075334
scalar RSUScenario.node[27].veinsmobility 	totalCO2Emission 	707.05692888657
scalar RSUScenario.node[26].nic.phy80211p 	busyTime 	0.048426957198446
scalar RSUScenario.node[26].nic.mac1609_4 	throughputMetricMac 	142.76518012594
scalar RSUScenario.node[26].nic.mac1609_4 	throughputMbps 	0.15078881455164
scalar RSUScenario.node[26].nic.mac1609_4 	throughputControlMbps 	0
scalar RSUScenario.node[26].nic.mac1609_4 	receivedFramesLowerMsg 	27775
scalar RSUScenario.node[26].nic.mac1609_4 	receivedBitsLowerPackets 	0
scalar RSUScenario.node[26].nic.mac1609_4 	receivedBitsLoserWsm 	0
scalar RSUScenario.node[26].nic.mac1609_4 	packetsNotForMe 	0
scalar RSUScenario.node[26].nic.mac1609_4 	receivedTotalBits 	29336000
scalar RSUScenario.node[26].nic.mac1609_4 	collisionsPktNonDecoded 	0
scalar RSUScenario.node[26].nic.mac1609_4 	channelUtilization 	1286
scalar RSUScenario.node[26].nic.mac1609_4 	ReceivedUnicastPackets 	0
scalar RSUScenario.node[26].nic.mac1609_4 	ReceivedBroadcasts 	27775
scalar RSUScenario.node[26].nic.mac1609_4 	SentPackets 	1286
scalar RSUScenario.node[26].nic.mac1609_4 	SNIRLostPackets 	1
scalar RSUScenario.node[26].nic.mac1609_4 	RXTXLostPackets 	1
scalar RSUScenario.node[26].nic.mac1609_4 	TotalLostPackets 	2
scalar RSUScenario.node[26].nic.mac1609_4 	DroppedPacketsInMac 	0
scalar RSUScenario.node[26].nic.mac1609_4 	TooLittleTime 	0
scalar RSUScenario.node[26].nic.mac1609_4 	TimesIntoBackoff 	1286
scalar RSUScenario.node[26].nic.mac1609_4 	SlotsBackoff 	1916
scalar RSUScenario.node[26].nic.mac1609_4 	NumInternalContention 	0
scalar RSUScenario.node[26].nic.mac1609_4 	totalBusyTime 	6.633844023595
scalar RSUScenario.node[26].nic.mac1609_4 	throughputMetricMac:last 	142.76518012594
attr source  throughputSignalMac
attr title  "throughputMetricMac, last"
scalar RSUScenario.node[26].nic.mac1609_4 	throughputMetricMac:count 	27775
attr source  throughputSignalMac
attr title  "throughputMetricMac, count"
scalar RSUScenario.node[26].nic.mac1609_4 	throughputMetricMac:sum 	2725801.6545666
attr source  throughputSignalMac
attr title  "throughputMetricMac, sum"
scalar RSUScenario.node[26].nic.mac1609_4 	throughputMetricMac:mean 	98.138673431739
attr source  throughputSignalMac
attr title  "throughputMetricMac, mean"
scalar RSUScenario.node[26].veinsmobility 	startTime 	66.1
scalar RSUScenario.node[26].veinsmobility 	totalTime 	128.4
scalar RSUScenario.node[26].veinsmobility 	stopTime 	194.6
scalar RSUScenario.node[26].veinsmobility 	minSpeed 	0.0060319371217736
scalar RSUScenario.node[26].veinsmobility 	maxSpeed 	31.289939378768
scalar RSUScenario.node[26].veinsmobility 	totalDistance 	3273.8147320714
scalar RSUScenario.node[26].veinsmobility 	totalCO2Emission 	718.26840112476
scalar RSUScenario.node[24].nic.phy80211p 	busyTime 	0.047939637943524
scalar RSUScenario.node[24].nic.mac1609_4 	throughputMetricMac 	149.12422178921
scalar RSUScenario.node[24].nic.mac1609_4 	throughputMbps 	0.15750230913814
scalar RSUScenario.node[24].nic.mac1609_4 	throughputControlMbps 	0
scalar RSUScenario.node[24].nic.mac1609_4 	receivedFramesLowerMsg 	29549
scalar RSUScenario.node[24].nic.mac1609_4 	receivedBitsLowerPackets 	0
scalar RSUScenario.node[24].nic.mac1609_4 	receivedBitsLoserWsm 	0
scalar RSUScenario.node[24].nic.mac1609_4 	packetsNotForMe 	0
scalar RSUScenario.node[24].nic.mac1609_4 	receivedTotalBits 	31209120
scalar RSUScenario.node[24].nic.mac1609_4 	collisionsPktNonDecoded 	0
scalar RSUScenario.node[24].nic.mac1609_4 	channelUtilization 	1382
scalar RSUScenario.node[24].nic.mac1609_4 	ReceivedUnicastPackets 	0
scalar RSUScenario.node[24].nic.mac1609_4 	ReceivedBroadcasts 	29549
scalar RSUScenario.node[24].nic.mac1609_4 	SentPackets 	1382
scalar RSUScenario.node[24].nic.mac1609_4 	SNIRLostPackets 	2
scalar RSUScenario.node[24].nic.mac1609_4 	RXTXLostPackets 	1
scalar RSUScenario.node[24].nic.mac1609_4 	TotalLostPackets 	3
scalar RSUScenario.node[24].nic.mac1609_4 	DroppedPacketsInMac 	0
scalar RSUScenario.node[24].nic.mac1609_4 	TooLittleTime 	0
scalar RSUScenario.node[24].nic.mac1609_4 	TimesIntoBackoff 	2559
scalar RSUScenario.node[24].nic.mac1609_4 	SlotsBackoff 	3920
scalar RSUScenario.node[24].nic.mac1609_4 	NumInternalContention 	0
scalar RSUScenario.node[24].nic.mac1609_4 	totalBusyTime 	7.060347447816
scalar RSUScenario.node[24].nic.mac1609_4 	throughputMetricMac:last 	149.12422178921
attr source  throughputSignalMac
attr title  "throughputMetricMac, last"
scalar RSUScenario.node[24].nic.mac1609_4 	throughputMetricMac:count 	29549
attr source  throughputSignalMac
attr title  "throughputMetricMac, count"
scalar RSUScenario.node[24].nic.mac1609_4 	throughputMetricMac:sum 	3090729.2598421
attr source  throughputSignalMac
attr title  "throughputMetricMac, sum"
scalar RSUScenario.node[24].nic.mac1609_4 	throughputMetricMac:mean 	104.59674641585
attr source  throughputSignalMac
attr title  "throughputMetricMac, mean"
scalar RSUScenario.node[24].veinsmobility 	startTime 	60.1
scalar RSUScenario.node[24].veinsmobility 	totalTime 	138
scalar RSUScenario.node[24].veinsmobility 	stopTime 	198.2
scalar RSUScenario.node[24].veinsmobility 	minSpeed 	3.0815660065447e-06
scalar RSUScenario.node[24].veinsmobility 	maxSpeed 	31.289950681196
scalar RSUScenario.node[24].veinsmobility 	totalDistance 	3275.0866412388
scalar RSUScenario.node[24].veinsmobility 	totalCO2Emission 	731.56383206252
scalar RSUScenario.node[20].nic.phy80211p 	busyTime 	0.046636117021284
scalar RSUScenario.node[20].nic.mac1609_4 	throughputMetricMac 	157.74231035873
scalar RSUScenario.node[20].nic.mac1609_4 	throughputMbps 	0.16660184090606
scalar RSUScenario.node[20].nic.mac1609_4 	throughputControlMbps 	0
scalar RSUScenario.node[20].nic.mac1609_4 	receivedFramesLowerMsg 	31304
scalar RSUScenario.node[20].nic.mac1609_4 	receivedBitsLowerPackets 	0
scalar RSUScenario.node[20].nic.mac1609_4 	receivedBitsLoserWsm 	0
scalar RSUScenario.node[20].nic.mac1609_4 	packetsNotForMe 	0
scalar RSUScenario.node[20].nic.mac1609_4 	receivedTotalBits 	33062176
scalar RSUScenario.node[20].nic.mac1609_4 	collisionsPktNonDecoded 	0
scalar RSUScenario.node[20].nic.mac1609_4 	channelUtilization 	1505
scalar RSUScenario.node[20].nic.mac1609_4 	ReceivedUnicastPackets 	0
scalar RSUScenario.node[20].nic.mac1609_4 	ReceivedBroadcasts 	31304
scalar RSUScenario.node[20].nic.mac1609_4 	SentPackets 	1505
scalar RSUScenario.node[20].nic.mac1609_4 	SNIRLostPackets 	4
scalar RSUScenario.node[20].nic.mac1609_4 	RXTXLostPackets 	0
scalar RSUScenario.node[20].nic.mac1609_4 	TotalLostPackets 	4
scalar RSUScenario.node[20].nic.mac1609_4 	DroppedPacketsInMac 	0
scalar RSUScenario.node[20].nic.mac1609_4 	TooLittleTime 	0
scalar RSUScenario.node[20].nic.mac1609_4 	TimesIntoBackoff 	1506
scalar RSUScenario.node[20].nic.mac1609_4 	SlotsBackoff 	2271
scalar RSUScenario.node[20].nic.mac1609_4 	NumInternalContention 	0
scalar RSUScenario.node[20].nic.mac1609_4 	totalBusyTime 	7.376580075077
scalar RSUScenario.node[20].nic.mac1609_4 	throughputMetricMac:last 	157.74231035873
attr source  throughputSignalMac
attr title  "throughputMetricMac, last"
scalar RSUScenario.node[20].nic.mac1609_4 	throughputMetricMac:count 	31304
attr source  throughputSignalMac
attr title  "throughputMetricMac, count"
scalar RSUScenario.node[20].nic.mac1609_4 	throughputMetricMac:sum 	3599832.7015138
attr source  throughputSignalMac
attr title  "throughputMetricMac, sum"
scalar RSUScenario.node[20].nic.mac1609_4 	throughputMetricMac:mean 	114.9959334754
attr source  throughputSignalMac
attr title  "throughputMetricMac, mean"
scalar RSUScenario.node[20].veinsmobility 	startTime 	48.1
scalar RSUScenario.node[20].veinsmobility 	totalTime 	150.3
scalar RSUScenario.node[20].veinsmobility 	stopTime 	198.5
scalar RSUScenario.node[20].veinsmobility 	minSpeed 	0
scalar RSUScenario.node[20].veinsmobility 	maxSpeed 	31.289872276494
scalar RSUScenario.node[20].veinsmobility 	totalDistance 	3268.0560061512
scalar RSUScenario.node[20].veinsmobility 	totalCO2Emission 	747.50124527639
scalar RSUScenario.node[29].nic.phy80211p 	busyTime 	0.047061882542236
scalar RSUScenario.node[29].nic.mac1609_4 	throughputMetricMac 	130.9920785826
scalar RSUScenario.node[29].nic.mac1609_4 	throughputMbps 	0.13834111894544
scalar RSUScenario.node[29].nic.mac1609_4 	throughputControlMbps 	0
scalar RSUScenario.node[29].nic.mac1609_4 	receivedFramesLowerMsg 	26113
scalar RSUScenario.node[29].nic.mac1609_4 	receivedBitsLowerPackets 	0
scalar RSUScenario.node[29].nic.mac1609_4 	receivedBitsLoserWsm 	0
scalar RSUScenario.node[29].nic.mac1609_4 	packetsNotForMe 	0
scalar RSUScenario.node[29].nic.mac1609_4 	receivedTotalBits 	27578016
scalar RSUScenario.node[29].nic.mac1609_4 	collisionsPktNonDecoded 	0
scalar RSUScenario.node[29].nic.mac1609_4 	channelUtilization 	1244
scalar RSUScenario.node[29].nic.mac1609_4 	ReceivedUnicastPackets 	0
scalar RSUScenario.node[29].nic.mac1609_4 	ReceivedBroadcasts 	26113
scalar RSUScenario.node[29].nic.mac1609_4 	SentPackets 	1244
scalar RSUScenario.node[29].nic.mac1609_4 	SNIRLostPackets 	0
scalar RSUScenario.node[29].nic.mac1609_4 	RXTXLostPackets 	0
scalar RSUScenario.node[29].nic.mac1609_4 	TotalLostPackets 	0
scalar RSUScenario.node[29].nic.mac1609_4 	DroppedPacketsInMac 	0
scalar RSUScenario.node[29].nic.mac1609_4 	TooLittleTime 	0
scalar RSUScenario.node[29].nic.mac1609_4 	TimesIntoBackoff 	1244
scalar RSUScenario.node[29].nic.mac1609_4 	SlotsBackoff 	1927
scalar RSUScenario.node[29].nic.mac1609_4 	NumInternalContention 	0
scalar RSUScenario.node[29].nic.mac1609_4 	totalBusyTime 	6.129732
scalar RSUScenario.node[29].nic.mac1609_4 	throughputMetricMac:last 	130.9920785826
attr source  throughputSignalMac
attr title  "throughputMetricMac, last"
scalar RSUScenario.node[29].nic.mac1609_4 	throughputMetricMac:count 	26113
attr source  throughputSignalMac
attr title  "throughputMetricMac, count"
scalar RSUScenario.node[29].nic.mac1609_4 	throughputMetricMac:sum 	2304921.5308854
attr source  throughputSignalMac
attr title  "throughputMetricMac, sum"
[...]
scalar RSUScenario.node[97].nic.mac1609_4 	TooLittleTime 	0
scalar RSUScenario.node[97].nic.mac1609_4 	TimesIntoBackoff 	1068
scalar RSUScenario.node[97].nic.mac1609_4 	SlotsBackoff 	1616
scalar RSUScenario.node[97].nic.mac1609_4 	NumInternalContention 	0
scalar RSUScenario.node[97].nic.mac1609_4 	totalBusyTime 	5.25535332959
scalar RSUScenario.node[97].nic.mac1609_4 	throughputMetricMac:last 	53.288783919417
attr source  throughputSignalMac
attr title  "throughputMetricMac, last"
scalar RSUScenario.node[97].nic.mac1609_4 	throughputMetricMac:count 	21514
attr source  throughputSignalMac
attr title  "throughputMetricMac, count"
scalar RSUScenario.node[97].nic.mac1609_4 	throughputMetricMac:sum 	635039.1248858
attr source  throughputSignalMac
attr title  "throughputMetricMac, sum"
scalar RSUScenario.node[97].nic.mac1609_4 	throughputMetricMac:mean 	29.517482796588
attr source  throughputSignalMac
attr title  "throughputMetricMac, mean"
scalar RSUScenario.node[97].veinsmobility 	startTime 	297.1
scalar RSUScenario.node[97].veinsmobility 	totalTime 	106.6
scalar RSUScenario.node[97].veinsmobility 	stopTime 	403.7251080416
scalar RSUScenario.node[97].veinsmobility 	minSpeed 	0.2505228318274
scalar RSUScenario.node[97].veinsmobility 	maxSpeed 	31.289885582421
scalar RSUScenario.node[97].veinsmobility 	totalDistance 	2845.7140299466
scalar RSUScenario.node[97].veinsmobility 	totalCO2Emission 	637.73860765341
scalar RSUScenario.node[98].nic.phy80211p 	busyTime 	0.048144130848498
scalar RSUScenario.node[98].nic.mac1609_4 	throughputMetricMac 	55.101900331711
scalar RSUScenario.node[98].nic.mac1609_4 	throughputMbps 	0.058202587254319
scalar RSUScenario.node[98].nic.mac1609_4 	throughputControlMbps 	0
scalar RSUScenario.node[98].nic.mac1609_4 	receivedFramesLowerMsg 	22246
scalar RSUScenario.node[98].nic.mac1609_4 	receivedBitsLowerPackets 	0
scalar RSUScenario.node[98].nic.mac1609_4 	receivedBitsLoserWsm 	0
scalar RSUScenario.node[98].nic.mac1609_4 	packetsNotForMe 	0
scalar RSUScenario.node[98].nic.mac1609_4 	receivedTotalBits 	23497824
scalar RSUScenario.node[98].nic.mac1609_4 	collisionsPktNonDecoded 	0
scalar RSUScenario.node[98].nic.mac1609_4 	channelUtilization 	1041
scalar RSUScenario.node[98].nic.mac1609_4 	ReceivedUnicastPackets 	0
scalar RSUScenario.node[98].nic.mac1609_4 	ReceivedBroadcasts 	22246
scalar RSUScenario.node[98].nic.mac1609_4 	SentPackets 	1041
scalar RSUScenario.node[98].nic.mac1609_4 	SNIRLostPackets 	84
scalar RSUScenario.node[98].nic.mac1609_4 	RXTXLostPackets 	0
scalar RSUScenario.node[98].nic.mac1609_4 	TotalLostPackets 	84
scalar RSUScenario.node[98].nic.mac1609_4 	DroppedPacketsInMac 	0
scalar RSUScenario.node[98].nic.mac1609_4 	TooLittleTime 	0
scalar RSUScenario.node[98].nic.mac1609_4 	TimesIntoBackoff 	1042
scalar RSUScenario.node[98].nic.mac1609_4 	SlotsBackoff 	1651
scalar RSUScenario.node[98].nic.mac1609_4 	NumInternalContention 	0
scalar RSUScenario.node[98].nic.mac1609_4 	totalBusyTime 	5.232266630859
scalar RSUScenario.node[98].nic.mac1609_4 	throughputMetricMac:last 	55.101900331711
attr source  throughputSignalMac
attr title  "throughputMetricMac, last"
scalar RSUScenario.node[98].nic.mac1609_4 	throughputMetricMac:count 	22246
attr source  throughputSignalMac
attr title  "throughputMetricMac, count"
scalar RSUScenario.node[98].nic.mac1609_4 	throughputMetricMac:sum 	671968.91004006
attr source  throughputSignalMac
attr title  "throughputMetricMac, sum"
scalar RSUScenario.node[98].nic.mac1609_4 	throughputMetricMac:mean 	30.206280231955
attr source  throughputSignalMac
attr title  "throughputMetricMac, mean"
scalar RSUScenario.node[98].veinsmobility 	startTime 	299.8
scalar RSUScenario.node[98].veinsmobility 	totalTime 	103.9
scalar RSUScenario.node[98].veinsmobility 	stopTime 	403.7251080416
scalar RSUScenario.node[98].veinsmobility 	minSpeed 	0.076093596673737
scalar RSUScenario.node[98].veinsmobility 	maxSpeed 	31.289831917014
scalar RSUScenario.node[98].veinsmobility 	totalDistance 	2499.7741334019
scalar RSUScenario.node[98].veinsmobility 	totalCO2Emission 	600.38354804474
scalar RSUScenario.node[99].nic.phy80211p 	busyTime 	0.053185776771776
scalar RSUScenario.node[99].nic.mac1609_4 	throughputMetricMac 	55.017684611133
scalar RSUScenario.node[99].nic.mac1609_4 	throughputMbps 	0.058113655453409
scalar RSUScenario.node[99].nic.mac1609_4 	throughputControlMbps 	0
scalar RSUScenario.node[99].nic.mac1609_4 	receivedFramesLowerMsg 	22212
scalar RSUScenario.node[99].nic.mac1609_4 	receivedBitsLowerPackets 	0
scalar RSUScenario.node[99].nic.mac1609_4 	receivedBitsLoserWsm 	0
scalar RSUScenario.node[99].nic.mac1609_4 	packetsNotForMe 	0
scalar RSUScenario.node[99].nic.mac1609_4 	receivedTotalBits 	23461920
scalar RSUScenario.node[99].nic.mac1609_4 	collisionsPktNonDecoded 	0
scalar RSUScenario.node[99].nic.mac1609_4 	channelUtilization 	1014
scalar RSUScenario.node[99].nic.mac1609_4 	ReceivedUnicastPackets 	0
scalar RSUScenario.node[99].nic.mac1609_4 	ReceivedBroadcasts 	22212
scalar RSUScenario.node[99].nic.mac1609_4 	SentPackets 	1014
scalar RSUScenario.node[99].nic.mac1609_4 	SNIRLostPackets 	1816
scalar RSUScenario.node[99].nic.mac1609_4 	RXTXLostPackets 	40
scalar RSUScenario.node[99].nic.mac1609_4 	TotalLostPackets 	1856
scalar RSUScenario.node[99].nic.mac1609_4 	DroppedPacketsInMac 	0
scalar RSUScenario.node[99].nic.mac1609_4 	TooLittleTime 	0
scalar RSUScenario.node[99].nic.mac1609_4 	TimesIntoBackoff 	1037
scalar RSUScenario.node[99].nic.mac1609_4 	SlotsBackoff 	1543
scalar RSUScenario.node[99].nic.mac1609_4 	NumInternalContention 	0
scalar RSUScenario.node[99].nic.mac1609_4 	totalBusyTime 	5.401510002417
scalar RSUScenario.node[99].nic.mac1609_4 	throughputMetricMac:last 	55.017684611133
attr source  throughputSignalMac
attr title  "throughputMetricMac, last"
scalar RSUScenario.node[99].nic.mac1609_4 	throughputMetricMac:count 	22212
attr source  throughputSignalMac
attr title  "throughputMetricMac, count"
scalar RSUScenario.node[99].nic.mac1609_4 	throughputMetricMac:sum 	669240.30533152
attr source  throughputSignalMac
attr title  "throughputMetricMac, sum"
scalar RSUScenario.node[99].nic.mac1609_4 	throughputMetricMac:mean 	30.129673389678
attr source  throughputSignalMac
attr title  "throughputMetricMac, mean"
scalar RSUScenario.node[99].veinsmobility 	startTime 	302.5
scalar RSUScenario.node[99].veinsmobility 	totalTime 	101.2
scalar RSUScenario.node[99].veinsmobility 	stopTime 	403.7251080416
scalar RSUScenario.node[99].veinsmobility 	minSpeed 	0.24980528805545
scalar RSUScenario.node[99].veinsmobility 	maxSpeed 	31.289558506105
scalar RSUScenario.node[99].veinsmobility 	totalDistance 	2672.5023865879
scalar RSUScenario.node[99].veinsmobility 	totalCO2Emission 	613.02329751775
scalar RSUScenario.node[100].nic.phy80211p 	busyTime 	0.051680714705223
scalar RSUScenario.node[100].nic.mac1609_4 	throughputMetricMac 	56.211599810903
scalar RSUScenario.node[100].nic.mac1609_4 	throughputMbps 	0.059370546076378
scalar RSUScenario.node[100].nic.mac1609_4 	throughputControlMbps 	0
scalar RSUScenario.node[100].nic.mac1609_4 	receivedFramesLowerMsg 	22694
scalar RSUScenario.node[100].nic.mac1609_4 	receivedBitsLowerPackets 	0
scalar RSUScenario.node[100].nic.mac1609_4 	receivedBitsLoserWsm 	0
scalar RSUScenario.node[100].nic.mac1609_4 	packetsNotForMe 	0
scalar RSUScenario.node[100].nic.mac1609_4 	receivedTotalBits 	23969344
scalar RSUScenario.node[100].nic.mac1609_4 	collisionsPktNonDecoded 	0
scalar RSUScenario.node[100].nic.mac1609_4 	channelUtilization 	987
scalar RSUScenario.node[100].nic.mac1609_4 	ReceivedUnicastPackets 	0
scalar RSUScenario.node[100].nic.mac1609_4 	ReceivedBroadcasts 	22694
scalar RSUScenario.node[100].nic.mac1609_4 	SentPackets 	987
scalar RSUScenario.node[100].nic.mac1609_4 	SNIRLostPackets 	32
scalar RSUScenario.node[100].nic.mac1609_4 	RXTXLostPackets 	0
scalar RSUScenario.node[100].nic.mac1609_4 	TotalLostPackets 	32
scalar RSUScenario.node[100].nic.mac1609_4 	DroppedPacketsInMac 	0
scalar RSUScenario.node[100].nic.mac1609_4 	TooLittleTime 	0
scalar RSUScenario.node[100].nic.mac1609_4 	TimesIntoBackoff 	1947
scalar RSUScenario.node[100].nic.mac1609_4 	SlotsBackoff 	2954
scalar RSUScenario.node[100].nic.mac1609_4 	NumInternalContention 	0
scalar RSUScenario.node[100].nic.mac1609_4 	totalBusyTime 	5.349683134026
scalar RSUScenario.node[100].nic.mac1609_4 	throughputMetricMac:last 	56.211599810903
attr source  throughputSignalMac
attr title  "throughputMetricMac, last"
scalar RSUScenario.node[100].nic.mac1609_4 	throughputMetricMac:count 	22694
attr source  throughputSignalMac
attr title  "throughputMetricMac, count"
scalar RSUScenario.node[100].nic.mac1609_4 	throughputMetricMac:sum 	690276.950692
attr source  throughputSignalMac
attr title  "throughputMetricMac, sum"
scalar RSUScenario.node[100].nic.mac1609_4 	throughputMetricMac:mean 	30.416715902529
attr source  throughputSignalMac
attr title  "throughputMetricMac, mean"
scalar RSUScenario.node[100].veinsmobility 	startTime 	305.2
scalar RSUScenario.node[100].veinsmobility 	totalTime 	98.5
scalar RSUScenario.node[100].veinsmobility 	stopTime 	403.7251080416
scalar RSUScenario.node[100].veinsmobility 	minSpeed 	0
scalar RSUScenario.node[100].veinsmobility 	maxSpeed 	31.289324340634
scalar RSUScenario.node[100].veinsmobility 	totalDistance 	1664.0546333222
scalar RSUScenario.node[100].veinsmobility 	totalCO2Emission 	459.42602377533
scalar RSUScenario.node[101].nic.phy80211p 	busyTime 	0.049136266018659
scalar RSUScenario.node[101].nic.mac1609_4 	throughputMetricMac 	52.04779088903
scalar RSUScenario.node[101].nic.mac1609_4 	throughputMbps 	0.054969680007383
scalar RSUScenario.node[101].nic.mac1609_4 	throughputControlMbps 	0
scalar RSUScenario.node[101].nic.mac1609_4 	receivedFramesLowerMsg 	21013
scalar RSUScenario.node[101].nic.mac1609_4 	receivedBitsLowerPackets 	0
scalar RSUScenario.node[101].nic.mac1609_4 	receivedBitsLoserWsm 	0
scalar RSUScenario.node[101].nic.mac1609_4 	packetsNotForMe 	0
scalar RSUScenario.node[101].nic.mac1609_4 	receivedTotalBits 	22192640
scalar RSUScenario.node[101].nic.mac1609_4 	collisionsPktNonDecoded 	0
scalar RSUScenario.node[101].nic.mac1609_4 	channelUtilization 	960
scalar RSUScenario.node[101].nic.mac1609_4 	ReceivedUnicastPackets 	0
scalar RSUScenario.node[101].nic.mac1609_4 	ReceivedBroadcasts 	21013
scalar RSUScenario.node[101].nic.mac1609_4 	SentPackets 	960
scalar RSUScenario.node[101].nic.mac1609_4 	SNIRLostPackets 	4
scalar RSUScenario.node[101].nic.mac1609_4 	RXTXLostPackets 	0
scalar RSUScenario.node[101].nic.mac1609_4 	TotalLostPackets 	4
scalar RSUScenario.node[101].nic.mac1609_4 	DroppedPacketsInMac 	0
scalar RSUScenario.node[101].nic.mac1609_4 	TooLittleTime 	0
scalar RSUScenario.node[101].nic.mac1609_4 	TimesIntoBackoff 	960
scalar RSUScenario.node[101].nic.mac1609_4 	SlotsBackoff 	1396
scalar RSUScenario.node[101].nic.mac1609_4 	NumInternalContention 	0
scalar RSUScenario.node[101].nic.mac1609_4 	totalBusyTime 	4.924
scalar RSUScenario.node[101].nic.mac1609_4 	throughputMetricMac:last 	52.04779088903
attr source  throughputSignalMac
attr title  "throughputMetricMac, last"
scalar RSUScenario.node[101].nic.mac1609_4 	throughputMetricMac:count 	21013
attr source  throughputSignalMac
attr title  "throughputMetricMac, count"
scalar RSUScenario.node[101].nic.mac1609_4 	throughputMetricMac:sum 	595727.3550524
attr source  throughputSignalMac
attr title  "throughputMetricMac, sum"
scalar RSUScenario.node[101].nic.mac1609_4 	throughputMetricMac:mean 	28.350419028811
attr source  throughputSignalMac
attr title  "throughputMetricMac, mean"
scalar RSUScenario.node[101].veinsmobility 	startTime 	307.9
scalar RSUScenario.node[101].veinsmobility 	totalTime 	95.8
scalar RSUScenario.node[101].veinsmobility 	stopTime 	403.7251080416
scalar RSUScenario.node[101].veinsmobility 	minSpeed 	0.25485498425737
scalar RSUScenario.node[101].veinsmobility 	maxSpeed 	31.289673179146
scalar RSUScenario.node[101].veinsmobility 	totalDistance 	2482.0675843724
scalar RSUScenario.node[101].veinsmobility 	totalCO2Emission 	581.14605058027
scalar RSUScenario.node[102].nic.phy80211p 	busyTime 	0.053293382465469
scalar RSUScenario.node[102].nic.mac1609_4 	throughputMetricMac 	54.418215670905
scalar RSUScenario.node[102].nic.mac1609_4 	throughputMbps 	0.057473403410008
scalar RSUScenario.node[102].nic.mac1609_4 	throughputControlMbps 	0
scalar RSUScenario.node[102].nic.mac1609_4 	receivedFramesLowerMsg 	21970
scalar RSUScenario.node[102].nic.mac1609_4 	receivedBitsLowerPackets 	0
scalar RSUScenario.node[102].nic.mac1609_4 	receivedBitsLoserWsm 	0
scalar RSUScenario.node[102].nic.mac1609_4 	packetsNotForMe 	0
scalar RSUScenario.node[102].nic.mac1609_4 	receivedTotalBits 	23203456
scalar RSUScenario.node[102].nic.mac1609_4 	collisionsPktNonDecoded 	0
scalar RSUScenario.node[102].nic.mac1609_4 	channelUtilization 	932
scalar RSUScenario.node[102].nic.mac1609_4 	ReceivedUnicastPackets 	0
scalar RSUScenario.node[102].nic.mac1609_4 	ReceivedBroadcasts 	21970
scalar RSUScenario.node[102].nic.mac1609_4 	SentPackets 	932
scalar RSUScenario.node[102].nic.mac1609_4 	SNIRLostPackets 	183
scalar RSUScenario.node[102].nic.mac1609_4 	RXTXLostPackets 	0
scalar RSUScenario.node[102].nic.mac1609_4 	TotalLostPackets 	183
scalar RSUScenario.node[102].nic.mac1609_4 	DroppedPacketsInMac 	0
scalar RSUScenario.node[102].nic.mac1609_4 	TooLittleTime 	0
scalar RSUScenario.node[102].nic.mac1609_4 	TimesIntoBackoff 	1810
scalar RSUScenario.node[102].nic.mac1609_4 	SlotsBackoff 	2723
scalar RSUScenario.node[102].nic.mac1609_4 	NumInternalContention 	0
scalar RSUScenario.node[102].nic.mac1609_4 	totalBusyTime 	5.154468124995
scalar RSUScenario.node[102].nic.mac1609_4 	throughputMetricMac:last 	54.418215670905
attr source  throughputSignalMac
attr title  "throughputMetricMac, last"
scalar RSUScenario.node[102].nic.mac1609_4 	throughputMetricMac:count 	21970
attr source  throughputSignalMac
attr title  "throughputMetricMac, count"
scalar RSUScenario.node[102].nic.mac1609_4 	throughputMetricMac:sum 	647035.00333044
attr source  throughputSignalMac
attr title  "throughputMetricMac, sum"
scalar RSUScenario.node[102].nic.mac1609_4 	throughputMetricMac:mean 	29.450842208941
attr source  throughputSignalMac
attr title  "throughputMetricMac, mean"
scalar RSUScenario.node[102].veinsmobility 	startTime 	310.6
scalar RSUScenario.node[102].veinsmobility 	totalTime 	93.1
scalar RSUScenario.node[102].veinsmobility 	stopTime 	403.7251080416
scalar RSUScenario.node[102].veinsmobility 	minSpeed 	0.0062285722334077
scalar RSUScenario.node[102].veinsmobility 	maxSpeed 	31.289480266818
scalar RSUScenario.node[102].veinsmobility 	totalDistance 	2203.9818463519
scalar RSUScenario.node[102].veinsmobility 	totalCO2Emission 	533.23440639112
scalar RSUScenario.node[103].nic.phy80211p 	busyTime 	0.051851780147468
scalar RSUScenario.node[103].nic.mac1609_4 	throughputMetricMac 	51.688683563524
scalar RSUScenario.node[103].nic.mac1609_4 	throughputMbps 	0.054591017511822
scalar RSUScenario.node[103].nic.mac1609_4 	throughputControlMbps 	0
scalar RSUScenario.node[103].nic.mac1609_4 	receivedFramesLowerMsg 	20868
scalar RSUScenario.node[103].nic.mac1609_4 	receivedBitsLowerPackets 	0
scalar RSUScenario.node[103].nic.mac1609_4 	receivedBitsLoserWsm 	0
scalar RSUScenario.node[103].nic.mac1609_4 	packetsNotForMe 	0
scalar RSUScenario.node[103].nic.mac1609_4 	receivedTotalBits 	22039744
scalar RSUScenario.node[103].nic.mac1609_4 	collisionsPktNonDecoded 	0
scalar RSUScenario.node[103].nic.mac1609_4 	channelUtilization 	907
scalar RSUScenario.node[103].nic.mac1609_4 	ReceivedUnicastPackets 	0
scalar RSUScenario.node[103].nic.mac1609_4 	ReceivedBroadcasts 	20868
scalar RSUScenario.node[103].nic.mac1609_4 	SentPackets 	907
scalar RSUScenario.node[103].nic.mac1609_4 	SNIRLostPackets 	84
scalar RSUScenario.node[103].nic.mac1609_4 	RXTXLostPackets 	1
scalar RSUScenario.node[103].nic.mac1609_4 	TotalLostPackets 	85
scalar RSUScenario.node[103].nic.mac1609_4 	DroppedPacketsInMac 	0
scalar RSUScenario.node[103].nic.mac1609_4 	TooLittleTime 	0
scalar RSUScenario.node[103].nic.mac1609_4 	TimesIntoBackoff 	1553
scalar RSUScenario.node[103].nic.mac1609_4 	SlotsBackoff 	2323
scalar RSUScenario.node[103].nic.mac1609_4 	NumInternalContention 	0
scalar RSUScenario.node[103].nic.mac1609_4 	totalBusyTime 	4.888555136737
scalar RSUScenario.node[103].nic.mac1609_4 	throughputMetricMac:last 	51.688683563524
attr source  throughputSignalMac
attr title  "throughputMetricMac, last"
scalar RSUScenario.node[103].nic.mac1609_4 	throughputMetricMac:count 	20868
attr source  throughputSignalMac
attr title  "throughputMetricMac, count"
scalar RSUScenario.node[103].nic.mac1609_4 	throughputMetricMac:sum 	583432.81952447
attr source  throughputSignalMac
attr title  "throughputMetricMac, sum"
scalar RSUScenario.node[103].nic.mac1609_4 	throughputMetricMac:mean 	27.958252804508
attr source  throughputSignalMac
attr title  "throughputMetricMac, mean"
scalar RSUScenario.node[103].veinsmobility 	startTime 	313.2
scalar RSUScenario.node[103].veinsmobility 	totalTime 	90.5
scalar RSUScenario.node[103].veinsmobility 	stopTime 	403.7251080416
scalar RSUScenario.node[103].veinsmobility 	minSpeed 	0.24726203277078
scalar RSUScenario.node[103].veinsmobility 	maxSpeed 	31.289808151985
scalar RSUScenario.node[103].veinsmobility 	totalDistance 	2340.3045391261
scalar RSUScenario.node[103].veinsmobility 	totalCO2Emission 	542.54538242189
scalar RSUScenario.rsu[0].nic.phy80211p 	busyTime 	0
scalar RSUScenario.rsu[0].nic.mac1609_4 	ReceivedUnicastPackets 	0
scalar RSUScenario.rsu[0].nic.mac1609_4 	ReceivedBroadcasts 	0
scalar RSUScenario.rsu[0].nic.mac1609_4 	SentPackets 	0
scalar RSUScenario.rsu[0].nic.mac1609_4 	SNIRLostPackets 	0
scalar RSUScenario.rsu[0].nic.mac1609_4 	RXTXLostPackets 	0
scalar RSUScenario.rsu[0].nic.mac1609_4 	TotalLostPackets 	0
scalar RSUScenario.rsu[0].nic.mac1609_4 	DroppedPacketsInMac 	0
scalar RSUScenario.rsu[0].nic.mac1609_4 	TooLittleTime 	0
scalar RSUScenario.rsu[0].nic.mac1609_4 	TimesIntoBackoff 	0
scalar RSUScenario.rsu[0].nic.mac1609_4 	SlotsBackoff 	0
scalar RSUScenario.rsu[0].nic.mac1609_4 	NumInternalContention 	0
scalar RSUScenario.rsu[0].nic.mac1609_4 	totalBusyTime 	0
scalar RSUScenario.metricsApplication.metrics 	packetsDeliveredToMetrics 	404
scalar RSUScenario.metricsApplication.metrics 	throughputMetric 	1.0024813895782
scalar RSUScenario.metricsApplication.metrics 	throughputMetric:last 	1.0024813895782
attr source  throughputSignal
attr title  "throughputMetric, last"
scalar RSUScenario.metricsApplication.metrics 	throughputMetric:count 	404
attr source  throughputSignal
attr title  "throughputMetric, count"
scalar RSUScenario.metricsApplication.metrics 	throughputMetric:sum 	409.57739240853
attr source  throughputSignal
attr title  "throughputMetric, sum"
scalar RSUScenario.metricsApplication.metrics 	throughputMetric:mean 	1.0138054267538
attr source  throughputSignal
attr title  "throughputMetric, mean"
scalar RSUScenario.metricsApplication.nic.phy80211p 	busyTime 	0
scalar RSUScenario.metricsApplication.nic.mac1609_4 	ReceivedUnicastPackets 	0
scalar RSUScenario.metricsApplication.nic.mac1609_4 	ReceivedBroadcasts 	0
scalar RSUScenario.metricsApplication.nic.mac1609_4 	SentPackets 	0
scalar RSUScenario.metricsApplication.nic.mac1609_4 	SNIRLostPackets 	0
scalar RSUScenario.metricsApplication.nic.mac1609_4 	RXTXLostPackets 	0
scalar RSUScenario.metricsApplication.nic.mac1609_4 	TotalLostPackets 	0
scalar RSUScenario.metricsApplication.nic.mac1609_4 	DroppedPacketsInMac 	0
scalar RSUScenario.metricsApplication.nic.mac1609_4 	TooLittleTime 	0
scalar RSUScenario.metricsApplication.nic.mac1609_4 	TimesIntoBackoff 	0
scalar RSUScenario.metricsApplication.nic.mac1609_4 	SlotsBackoff 	0
scalar RSUScenario.metricsApplication.nic.mac1609_4 	NumInternalContention 	0
scalar RSUScenario.metricsApplication.nic.mac1609_4 	totalBusyTime 	0
