version 2
run CCH_SCH_Safety_B_100Bytes_Q_1-2-20171008-15:23:24-29384
attr configname CCH_SCH_Safety_B_100Bytes_Q_1
attr datetime 20171008-15:23:24
attr experiment CCH_SCH_Safety_B_100Bytes_Q_1
attr inifile omnetpp.ini
attr iterationvars $0=5
attr iterationvars2 "$0=5, $repetition=0"
attr measurement $0=5
attr network RSUScenario
attr processid 29384
attr repetition 0
attr replication #0
attr resultdir results
attr runnumber 2
attr seedset 2
param **.coreDebug false
param **.debug true
param *.**.nic.mac1609_4.bitrate 6Mbps
param *.**.nic.mac1609_4.queueSize ${1,2,5}
param *.**.nic.mac1609_4.txPower 100mW
param *.**.nic.mac1609_4.useServiceChannel false
param *.**.nic.phy80211p.analogueModels "xmldoc(\"config.xml\")"
param *.**.nic.phy80211p.collectCollisionStatistics true
param *.**.nic.phy80211p.decider "xmldoc(\"config.xml\")"
param *.**.nic.phy80211p.decider.collectCollisionStats true
param *.**.nic.phy80211p.maxTXPower 100mW
param *.**.nic.phy80211p.sensitivity -89dBm
param *.**.nic.phy80211p.thermalNoise -110dBm
param *.**.nic.phy80211p.usePropagationDelay true
param *.**.nic.phy80211p.useThermalNoise true
param *.annotations.draw false
param *.connectionManager.alpha 2.0
param *.connectionManager.carrierFrequency "5.890e9 Hz"
param *.connectionManager.pMax 100mW
param *.connectionManager.sat -89dBm
param *.connectionManager.sendDirect true
param *.manager.autoShutdown true
param *.manager.host "\"localhost\""
param *.manager.launchConfig "xmldoc(\"erlangen.launchd.xml\")"
param *.manager.margin 25
param *.manager.moduleDisplayString "\"\""
param *.manager.moduleName "\"node\""
param *.manager.moduleType "\"vanets.src.CarWithMetrics\""
param *.manager.numVehicles 5
param *.manager.port 9999
param *.manager.updateInterval 0.1s
param *.metricsApplicaiton[*].appl.sendBeacons false
param *.metricsApplication.appl.beaconInterval 1s
param *.metricsApplication.appl.beaconLengthBits 800bit
param *.metricsApplication.appl.beaconPriority 3
param *.metricsApplication.appl.dataOnSch false
param *.metricsApplication.appl.dataPriority 2
param *.metricsApplication.appl.debug false
param *.metricsApplication.appl.headerLength "256 bit"
param *.metricsApplication.appl.maxOffset 0.005s
param *.metricsApplication.appl.sendBeacons false
param *.metricsApplication.appl.sendData true
param *.metricsApplication.applType "\"TraCIDemoRSU11p\""
param *.metricsApplication.mobility.x 2000
param *.metricsApplication.mobility.y 2000
param *.metricsApplication.mobility.z 3
param *.metricsApplication[*].appl.beaconInterval 0.1s
param *.metricsApplication[*].appl.beaconPriority 3
param *.metricsApplication[*].appl.dataOnSch false
param *.metricsApplication[*].appl.sendData false
param *.node[*0].veinsmobility.accidentCount 1
param *.node[*0].veinsmobility.accidentDuration 30s
param *.node[*0].veinsmobility.accidentStart 10s
param *.node[*].appl.beaconInterval 1s
param *.node[*].appl.beaconLengthBits 800bit
param *.node[*].appl.beaconPriority 3
param *.node[*].appl.dataOnSch false
param *.node[*].appl.dataPriority 2
param *.node[*].appl.debug false
param *.node[*].appl.headerLength "256 bit"
param *.node[*].appl.maxOffset 0.005s
param *.node[*].appl.sendBeacons false
param *.node[*].appl.sendData true
param *.node[*].applType "\"TraCIDemo11p\""
param *.node[*].mobilityType "\"TraCIMobility\""
param *.node[*].mobilityType.debug true
param *.node[*].veinsmobility.x 0
param *.node[*].veinsmobility.y 0
param *.node[*].veinsmobility.z 1.895
param *.node[*].veinsmobilityType "\"org.car2x.veins.modules.mobility.traci.TraCIMobility\""
param *.node[*].veinsmobilityType.debug true
param *.obstacles.debug false
param *.playgroundSizeX 25000m
param *.playgroundSizeY 25000m
param *.playgroundSizeZ 50m
param *.rsu[*].appl.beaconInterval 1s
param *.rsu[*].appl.beaconLengthBits 800bit
param *.rsu[*].appl.beaconPriority 3
param *.rsu[*].appl.dataOnSch false
param *.rsu[*].appl.dataPriority 2
param *.rsu[*].appl.debug false
param *.rsu[*].appl.headerLength "256 bit"
param *.rsu[*].appl.maxOffset 0.005s
param *.rsu[*].appl.sendBeacons false
param *.rsu[*].appl.sendData true
param *.rsu[*].applType "\"TraCIDemoRSU11p\""
param *.rsu[0].mobility.x 2000
param *.rsu[0].mobility.y 2000
param *.rsu[0].mobility.z 3
param *.world.use2D false
param *.world.useTorus false

scalar RSUScenario.node[1].nic.phy80211p 	busyTime 	0.0186
scalar RSUScenario.node[1].nic.phy80211p 	ncollisions 	0
scalar RSUScenario.node[1].nic.phy80211p 	nnot_decoded_collisons 	0
scalar RSUScenario.node[1].nic.mac1609_4 	throughputMetricMac 	82.115345155081
scalar RSUScenario.node[1].nic.mac1609_4 	throughputMbps 	0.086739175293865
scalar RSUScenario.node[1].nic.mac1609_4 	throughputControlMbps 	0
scalar RSUScenario.node[1].nic.mac1609_4 	receivedFramesLowerMsg 	8700
scalar RSUScenario.node[1].nic.mac1609_4 	receivedBitsLowerPackets 	0
scalar RSUScenario.node[1].nic.mac1609_4 	receivedBitsLoserWsm 	0
scalar RSUScenario.node[1].nic.mac1609_4 	packetsNotForMe 	0
scalar RSUScenario.node[1].nic.mac1609_4 	receivedTotalBits 	9189888
scalar RSUScenario.node[1].nic.mac1609_4 	collisionsPktNonDecoded 	0
scalar RSUScenario.node[1].nic.mac1609_4 	chUtilizationSCH1 	0.000265
scalar RSUScenario.node[1].nic.mac1609_4 	chUtilizationSCH2 	0
scalar RSUScenario.node[1].nic.mac1609_4 	chUtilizationSCH3 	0
scalar RSUScenario.node[1].nic.mac1609_4 	chUtilizationSCH4 	0
scalar RSUScenario.node[1].nic.mac1609_4 	chUtilizationCCH 	0.2358
scalar RSUScenario.node[1].nic.mac1609_4 	chUtilizationHPPS 	0
scalar RSUScenario.node[1].nic.mac1609_4 	chUtilizationCRIT_SOL 	0
scalar RSUScenario.node[1].nic.mac1609_4 	ReceivedUnicastPackets 	0
scalar RSUScenario.node[1].nic.mac1609_4 	ReceivedBroadcasts 	8700
scalar RSUScenario.node[1].nic.mac1609_4 	SentPackets 	1049
scalar RSUScenario.node[1].nic.mac1609_4 	SNIRLostPackets 	0
scalar RSUScenario.node[1].nic.mac1609_4 	RXTXLostPackets 	0
scalar RSUScenario.node[1].nic.mac1609_4 	TotalLostPackets 	0
scalar RSUScenario.node[1].nic.mac1609_4 	DroppedPacketsInMac 	0
scalar RSUScenario.node[1].nic.mac1609_4 	TooLittleTime 	0
scalar RSUScenario.node[1].nic.mac1609_4 	TimesIntoBackoff 	1050
scalar RSUScenario.node[1].nic.mac1609_4 	SlotsBackoff 	1553
scalar RSUScenario.node[1].nic.mac1609_4 	NumInternalContention 	0
scalar RSUScenario.node[1].nic.mac1609_4 	totalBusyTime 	2.185345
scalar RSUScenario.node[1].nic.mac1609_4 	throughputMetricMac:last 	82.115345155081
attr source  throughputSignalMac
attr title  "throughputMetricMac, last"
scalar RSUScenario.node[1].nic.mac1609_4 	throughputMetricMac:count 	8700
attr source  throughputSignalMac
attr title  "throughputMetricMac, count"
scalar RSUScenario.node[1].nic.mac1609_4 	throughputMetricMac:sum 	702349.09046303
attr source  throughputSignalMac
attr title  "throughputMetricMac, sum"
scalar RSUScenario.node[1].nic.mac1609_4 	throughputMetricMac:mean 	80.729780512993
attr source  throughputSignalMac
attr title  "throughputMetricMac, mean"
scalar RSUScenario.node[1].veinsmobility 	startTime 	1.2
scalar RSUScenario.node[1].veinsmobility 	totalTime 	104.7
scalar RSUScenario.node[1].veinsmobility 	stopTime 	106
scalar RSUScenario.node[1].veinsmobility 	minSpeed 	31.160055929241
scalar RSUScenario.node[1].veinsmobility 	maxSpeed 	31.289917574106
scalar RSUScenario.node[1].veinsmobility 	totalDistance 	3270.7859828072
scalar RSUScenario.node[1].veinsmobility 	totalCO2Emission 	581.43164704238
scalar RSUScenario.node[2].nic.phy80211p 	busyTime 	0.0186
scalar RSUScenario.node[2].nic.phy80211p 	ncollisions 	0
scalar RSUScenario.node[2].nic.phy80211p 	nnot_decoded_collisons 	0
scalar RSUScenario.node[2].nic.mac1609_4 	throughputMetricMac 	82.1153451556
scalar RSUScenario.node[2].nic.mac1609_4 	throughputMbps 	0.086739175294413
scalar RSUScenario.node[2].nic.mac1609_4 	throughputControlMbps 	0
scalar RSUScenario.node[2].nic.mac1609_4 	receivedFramesLowerMsg 	8700
scalar RSUScenario.node[2].nic.mac1609_4 	receivedBitsLowerPackets 	0
scalar RSUScenario.node[2].nic.mac1609_4 	receivedBitsLoserWsm 	0
scalar RSUScenario.node[2].nic.mac1609_4 	packetsNotForMe 	0
scalar RSUScenario.node[2].nic.mac1609_4 	receivedTotalBits 	9189888
scalar RSUScenario.node[2].nic.mac1609_4 	collisionsPktNonDecoded 	0
scalar RSUScenario.node[2].nic.mac1609_4 	chUtilizationSCH1 	0.000265
scalar RSUScenario.node[2].nic.mac1609_4 	chUtilizationSCH2 	0
scalar RSUScenario.node[2].nic.mac1609_4 	chUtilizationSCH3 	0
scalar RSUScenario.node[2].nic.mac1609_4 	chUtilizationSCH4 	0
scalar RSUScenario.node[2].nic.mac1609_4 	chUtilizationCCH 	0.2358
scalar RSUScenario.node[2].nic.mac1609_4 	chUtilizationHPPS 	0
scalar RSUScenario.node[2].nic.mac1609_4 	chUtilizationCRIT_SOL 	0
scalar RSUScenario.node[2].nic.mac1609_4 	ReceivedUnicastPackets 	0
scalar RSUScenario.node[2].nic.mac1609_4 	ReceivedBroadcasts 	8700
scalar RSUScenario.node[2].nic.mac1609_4 	SentPackets 	1049
scalar RSUScenario.node[2].nic.mac1609_4 	SNIRLostPackets 	0
scalar RSUScenario.node[2].nic.mac1609_4 	RXTXLostPackets 	0
scalar RSUScenario.node[2].nic.mac1609_4 	TotalLostPackets 	0
scalar RSUScenario.node[2].nic.mac1609_4 	DroppedPacketsInMac 	0
scalar RSUScenario.node[2].nic.mac1609_4 	TooLittleTime 	0
scalar RSUScenario.node[2].nic.mac1609_4 	TimesIntoBackoff 	1050
scalar RSUScenario.node[2].nic.mac1609_4 	SlotsBackoff 	1572
scalar RSUScenario.node[2].nic.mac1609_4 	NumInternalContention 	0
scalar RSUScenario.node[2].nic.mac1609_4 	totalBusyTime 	2.185345
scalar RSUScenario.node[2].nic.mac1609_4 	throughputMetricMac:last 	82.1153451556
attr source  throughputSignalMac
attr title  "throughputMetricMac, last"
scalar RSUScenario.node[2].nic.mac1609_4 	throughputMetricMac:count 	8700
attr source  throughputSignalMac
attr title  "throughputMetricMac, count"
scalar RSUScenario.node[2].nic.mac1609_4 	throughputMetricMac:sum 	702360.69759351
attr source  throughputSignalMac
attr title  "throughputMetricMac, sum"
scalar RSUScenario.node[2].nic.mac1609_4 	throughputMetricMac:mean 	80.731114665921
attr source  throughputSignalMac
attr title  "throughputMetricMac, mean"
scalar RSUScenario.node[2].veinsmobility 	startTime 	1.2
scalar RSUScenario.node[2].veinsmobility 	totalTime 	104.7
scalar RSUScenario.node[2].veinsmobility 	stopTime 	106
scalar RSUScenario.node[2].veinsmobility 	minSpeed 	31.160075074104
scalar RSUScenario.node[2].veinsmobility 	maxSpeed 	31.28987575595
scalar RSUScenario.node[2].veinsmobility 	totalDistance 	3271.9179416673
scalar RSUScenario.node[2].veinsmobility 	totalCO2Emission 	581.92589514063
scalar RSUScenario.node[4].nic.phy80211p 	busyTime 	0.020393282442747
scalar RSUScenario.node[4].nic.phy80211p 	ncollisions 	2
scalar RSUScenario.node[4].nic.phy80211p 	nnot_decoded_collisons 	0
scalar RSUScenario.node[4].nic.mac1609_4 	throughputMetricMac 	88.740163063398
scalar RSUScenario.node[4].nic.mac1609_4 	throughputMbps 	0.093734628824044
scalar RSUScenario.node[4].nic.mac1609_4 	throughputControlMbps 	0
scalar RSUScenario.node[4].nic.mac1609_4 	receivedFramesLowerMsg 	9535
scalar RSUScenario.node[4].nic.mac1609_4 	receivedBitsLowerPackets 	0
scalar RSUScenario.node[4].nic.mac1609_4 	receivedBitsLoserWsm 	0
scalar RSUScenario.node[4].nic.mac1609_4 	packetsNotForMe 	0
scalar RSUScenario.node[4].nic.mac1609_4 	receivedTotalBits 	10071648
scalar RSUScenario.node[4].nic.mac1609_4 	collisionsPktNonDecoded 	0
scalar RSUScenario.node[4].nic.mac1609_4 	chUtilizationSCH1 	0.000265
scalar RSUScenario.node[4].nic.mac1609_4 	chUtilizationSCH2 	0
scalar RSUScenario.node[4].nic.mac1609_4 	chUtilizationSCH3 	0
scalar RSUScenario.node[4].nic.mac1609_4 	chUtilizationSCH4 	0
scalar RSUScenario.node[4].nic.mac1609_4 	chUtilizationCCH 	0.2358
scalar RSUScenario.node[4].nic.mac1609_4 	chUtilizationHPPS 	0
scalar RSUScenario.node[4].nic.mac1609_4 	chUtilizationCRIT_SOL 	0
scalar RSUScenario.node[4].nic.mac1609_4 	ReceivedUnicastPackets 	0
scalar RSUScenario.node[4].nic.mac1609_4 	ReceivedBroadcasts 	9535
scalar RSUScenario.node[4].nic.mac1609_4 	SentPackets 	1049
scalar RSUScenario.node[4].nic.mac1609_4 	SNIRLostPackets 	4
scalar RSUScenario.node[4].nic.mac1609_4 	RXTXLostPackets 	0
scalar RSUScenario.node[4].nic.mac1609_4 	TotalLostPackets 	4
scalar RSUScenario.node[4].nic.mac1609_4 	DroppedPacketsInMac 	0
scalar RSUScenario.node[4].nic.mac1609_4 	TooLittleTime 	0
scalar RSUScenario.node[4].nic.mac1609_4 	TimesIntoBackoff 	1049
scalar RSUScenario.node[4].nic.mac1609_4 	SlotsBackoff 	1642
scalar RSUScenario.node[4].nic.mac1609_4 	NumInternalContention 	0
scalar RSUScenario.node[4].nic.mac1609_4 	totalBusyTime 	2.372833
scalar RSUScenario.node[4].nic.mac1609_4 	throughputMetricMac:last 	88.740163063398
attr source  throughputSignalMac
attr title  "throughputMetricMac, last"
scalar RSUScenario.node[4].nic.mac1609_4 	throughputMetricMac:count 	9535
attr source  throughputSignalMac
attr title  "throughputMetricMac, count"
scalar RSUScenario.node[4].nic.mac1609_4 	throughputMetricMac:sum 	801781.06761436
attr source  throughputSignalMac
attr title  "throughputMetricMac, sum"
scalar RSUScenario.node[4].nic.mac1609_4 	throughputMetricMac:mean 	84.088208454574
attr source  throughputSignalMac
attr title  "throughputMetricMac, mean"
scalar RSUScenario.node[4].veinsmobility 	startTime 	2.7
scalar RSUScenario.node[4].veinsmobility 	totalTime 	104.7
scalar RSUScenario.node[4].veinsmobility 	stopTime 	107.5
scalar RSUScenario.node[4].veinsmobility 	minSpeed 	31.160030297707
scalar RSUScenario.node[4].veinsmobility 	maxSpeed 	31.289928238182
scalar RSUScenario.node[4].veinsmobility 	totalDistance 	3270.6956122472
scalar RSUScenario.node[4].veinsmobility 	totalCO2Emission 	581.60652076003
scalar RSUScenario.node[3].nic.phy80211p 	busyTime 	0.028531366303425
scalar RSUScenario.node[3].nic.phy80211p 	ncollisions 	48
scalar RSUScenario.node[3].nic.phy80211p 	nnot_decoded_collisons 	0
scalar RSUScenario.node[3].nic.mac1609_4 	throughputMetricMac 	123.79813892314
scalar RSUScenario.node[3].nic.mac1609_4 	throughputMbps 	0.13075655047179
scalar RSUScenario.node[3].nic.mac1609_4 	throughputControlMbps 	0
scalar RSUScenario.node[3].nic.mac1609_4 	receivedFramesLowerMsg 	15097
scalar RSUScenario.node[3].nic.mac1609_4 	receivedBitsLowerPackets 	0
scalar RSUScenario.node[3].nic.mac1609_4 	receivedBitsLoserWsm 	0
scalar RSUScenario.node[3].nic.mac1609_4 	packetsNotForMe 	0
scalar RSUScenario.node[3].nic.mac1609_4 	receivedTotalBits 	15945568
scalar RSUScenario.node[3].nic.mac1609_4 	collisionsPktNonDecoded 	0
scalar RSUScenario.node[3].nic.mac1609_4 	chUtilizationSCH1 	0.000265
scalar RSUScenario.node[3].nic.mac1609_4 	chUtilizationSCH2 	0
scalar RSUScenario.node[3].nic.mac1609_4 	chUtilizationSCH3 	0
scalar RSUScenario.node[3].nic.mac1609_4 	chUtilizationSCH4 	0
scalar RSUScenario.node[3].nic.mac1609_4 	chUtilizationCCH 	0.268425
scalar RSUScenario.node[3].nic.mac1609_4 	chUtilizationHPPS 	0
scalar RSUScenario.node[3].nic.mac1609_4 	chUtilizationCRIT_SOL 	0
scalar RSUScenario.node[3].nic.mac1609_4 	ReceivedUnicastPackets 	0
scalar RSUScenario.node[3].nic.mac1609_4 	ReceivedBroadcasts 	15097
scalar RSUScenario.node[3].nic.mac1609_4 	SentPackets 	1194
scalar RSUScenario.node[3].nic.mac1609_4 	SNIRLostPackets 	96
scalar RSUScenario.node[3].nic.mac1609_4 	RXTXLostPackets 	0
scalar RSUScenario.node[3].nic.mac1609_4 	TotalLostPackets 	96
scalar RSUScenario.node[3].nic.mac1609_4 	DroppedPacketsInMac 	0
scalar RSUScenario.node[3].nic.mac1609_4 	TooLittleTime 	0
scalar RSUScenario.node[3].nic.mac1609_4 	TimesIntoBackoff 	1195
scalar RSUScenario.node[3].nic.mac1609_4 	SlotsBackoff 	1740
scalar RSUScenario.node[3].nic.mac1609_4 	NumInternalContention 	0
scalar RSUScenario.node[3].nic.mac1609_4 	totalBusyTime 	3.66173
scalar RSUScenario.node[3].nic.mac1609_4 	throughputMetricMac:last 	123.79813892314
attr source  throughputSignalMac
attr title  "throughputMetricMac, last"
scalar RSUScenario.node[3].nic.mac1609_4 	throughputMetricMac:count 	15097
attr source  throughputSignalMac
attr title  "throughputMetricMac, count"
scalar RSUScenario.node[3].nic.mac1609_4 	throughputMetricMac:sum 	1637837.7465559
attr source  throughputSignalMac
attr title  "throughputMetricMac, sum"
scalar RSUScenario.node[3].nic.mac1609_4 	throughputMetricMac:mean 	108.48762976459
attr source  throughputSignalMac
attr title  "throughputMetricMac, mean"
scalar RSUScenario.node[3].veinsmobility 	startTime 	2.7
scalar RSUScenario.node[3].veinsmobility 	totalTime 	119.2
scalar RSUScenario.node[3].veinsmobility 	stopTime 	122
scalar RSUScenario.node[3].veinsmobility 	minSpeed 	2.6715204216383
scalar RSUScenario.node[3].veinsmobility 	maxSpeed 	31.289938811061
scalar RSUScenario.node[3].veinsmobility 	totalDistance 	3273.1328406592
scalar RSUScenario.node[3].veinsmobility 	totalCO2Emission 	725.72808167301
scalar RSUScenario.node[6].nic.phy80211p 	busyTime 	0.032376564315337
scalar RSUScenario.node[6].nic.phy80211p 	ncollisions 	53
scalar RSUScenario.node[6].nic.phy80211p 	nnot_decoded_collisons 	0
scalar RSUScenario.node[6].nic.mac1609_4 	throughputMetricMac 	135.52839980891
scalar RSUScenario.node[6].nic.mac1609_4 	throughputMbps 	0.14314606729559
scalar RSUScenario.node[6].nic.mac1609_4 	throughputControlMbps 	0
scalar RSUScenario.node[6].nic.mac1609_4 	receivedFramesLowerMsg 	17300
scalar RSUScenario.node[6].nic.mac1609_4 	receivedBitsLowerPackets 	0
scalar RSUScenario.node[6].nic.mac1609_4 	receivedBitsLoserWsm 	0
scalar RSUScenario.node[6].nic.mac1609_4 	packetsNotForMe 	0
scalar RSUScenario.node[6].nic.mac1609_4 	receivedTotalBits 	18272384
scalar RSUScenario.node[6].nic.mac1609_4 	collisionsPktNonDecoded 	0
scalar RSUScenario.node[6].nic.mac1609_4 	chUtilizationSCH1 	0.000265
scalar RSUScenario.node[6].nic.mac1609_4 	chUtilizationSCH2 	0
scalar RSUScenario.node[6].nic.mac1609_4 	chUtilizationSCH3 	0
scalar RSUScenario.node[6].nic.mac1609_4 	chUtilizationSCH4 	0
scalar RSUScenario.node[6].nic.mac1609_4 	chUtilizationCCH 	0.271125
scalar RSUScenario.node[6].nic.mac1609_4 	chUtilizationHPPS 	0
scalar RSUScenario.node[6].nic.mac1609_4 	chUtilizationCRIT_SOL 	0
scalar RSUScenario.node[6].nic.mac1609_4 	ReceivedUnicastPackets 	0
scalar RSUScenario.node[6].nic.mac1609_4 	ReceivedBroadcasts 	17300
scalar RSUScenario.node[6].nic.mac1609_4 	SentPackets 	1206
scalar RSUScenario.node[6].nic.mac1609_4 	SNIRLostPackets 	114
scalar RSUScenario.node[6].nic.mac1609_4 	RXTXLostPackets 	0
scalar RSUScenario.node[6].nic.mac1609_4 	TotalLostPackets 	114
scalar RSUScenario.node[6].nic.mac1609_4 	DroppedPacketsInMac 	0
scalar RSUScenario.node[6].nic.mac1609_4 	TooLittleTime 	0
scalar RSUScenario.node[6].nic.mac1609_4 	TimesIntoBackoff 	1207
scalar RSUScenario.node[6].nic.mac1609_4 	SlotsBackoff 	1823
scalar RSUScenario.node[6].nic.mac1609_4 	NumInternalContention 	0
scalar RSUScenario.node[6].nic.mac1609_4 	totalBusyTime 	4.159102
scalar RSUScenario.node[6].nic.mac1609_4 	throughputMetricMac:last 	135.52839980891
attr source  throughputSignalMac
attr title  "throughputMetricMac, last"
scalar RSUScenario.node[6].nic.mac1609_4 	throughputMetricMac:count 	17300
attr source  throughputSignalMac
attr title  "throughputMetricMac, count"
scalar RSUScenario.node[6].nic.mac1609_4 	throughputMetricMac:sum 	1983138.1292484
attr source  throughputSignalMac
attr title  "throughputMetricMac, sum"
scalar RSUScenario.node[6].nic.mac1609_4 	throughputMetricMac:mean 	114.63226180627
attr source  throughputSignalMac
attr title  "throughputMetricMac, mean"
scalar RSUScenario.node[6].veinsmobility 	startTime 	7.2
scalar RSUScenario.node[6].veinsmobility 	totalTime 	120.4
scalar RSUScenario.node[6].veinsmobility 	stopTime 	127.7
scalar RSUScenario.node[6].veinsmobility 	minSpeed 	0.2548630401236
scalar RSUScenario.node[6].veinsmobility 	maxSpeed 	31.289688924551
scalar RSUScenario.node[6].veinsmobility 	totalDistance 	3273.856746958
scalar RSUScenario.node[6].veinsmobility 	totalCO2Emission 	721.23916517385
scalar RSUScenario.node[5].nic.phy80211p 	busyTime 	0.035756426332278
scalar RSUScenario.node[5].nic.phy80211p 	ncollisions 	42
scalar RSUScenario.node[5].nic.phy80211p 	nnot_decoded_collisons 	0
scalar RSUScenario.node[5].nic.mac1609_4 	throughputMetricMac 	148.48744521644
scalar RSUScenario.node[5].nic.mac1609_4 	throughputMbps 	0.15683497362539
scalar RSUScenario.node[5].nic.mac1609_4 	throughputControlMbps 	0
scalar RSUScenario.node[5].nic.mac1609_4 	receivedFramesLowerMsg 	19607
scalar RSUScenario.node[5].nic.mac1609_4 	receivedBitsLowerPackets 	0
scalar RSUScenario.node[5].nic.mac1609_4 	receivedBitsLoserWsm 	0
scalar RSUScenario.node[5].nic.mac1609_4 	packetsNotForMe 	0
scalar RSUScenario.node[5].nic.mac1609_4 	receivedTotalBits 	20709248
scalar RSUScenario.node[5].nic.mac1609_4 	collisionsPktNonDecoded 	0
scalar RSUScenario.node[5].nic.mac1609_4 	chUtilizationSCH1 	0.000265
scalar RSUScenario.node[5].nic.mac1609_4 	chUtilizationSCH2 	0
scalar RSUScenario.node[5].nic.mac1609_4 	chUtilizationSCH3 	0
scalar RSUScenario.node[5].nic.mac1609_4 	chUtilizationSCH4 	0
scalar RSUScenario.node[5].nic.mac1609_4 	chUtilizationCCH 	0.2871
scalar RSUScenario.node[5].nic.mac1609_4 	chUtilizationHPPS 	0
scalar RSUScenario.node[5].nic.mac1609_4 	chUtilizationCRIT_SOL 	0
scalar RSUScenario.node[5].nic.mac1609_4 	ReceivedUnicastPackets 	0
scalar RSUScenario.node[5].nic.mac1609_4 	ReceivedBroadcasts 	19607
scalar RSUScenario.node[5].nic.mac1609_4 	SentPackets 	1277
scalar RSUScenario.node[5].nic.mac1609_4 	SNIRLostPackets 	758
scalar RSUScenario.node[5].nic.mac1609_4 	RXTXLostPackets 	0
scalar RSUScenario.node[5].nic.mac1609_4 	TotalLostPackets 	758
scalar RSUScenario.node[5].nic.mac1609_4 	DroppedPacketsInMac 	0
scalar RSUScenario.node[5].nic.mac1609_4 	TooLittleTime 	0
scalar RSUScenario.node[5].nic.mac1609_4 	TimesIntoBackoff 	1278
scalar RSUScenario.node[5].nic.mac1609_4 	SlotsBackoff 	1909
scalar RSUScenario.node[5].nic.mac1609_4 	NumInternalContention 	0
scalar RSUScenario.node[5].nic.mac1609_4 	totalBusyTime 	4.689501
scalar RSUScenario.node[5].nic.mac1609_4 	throughputMetricMac:last 	148.48744521644
attr source  throughputSignalMac
attr title  "throughputMetricMac, last"
scalar RSUScenario.node[5].nic.mac1609_4 	throughputMetricMac:count 	19607
attr source  throughputSignalMac
attr title  "throughputMetricMac, count"
scalar RSUScenario.node[5].nic.mac1609_4 	throughputMetricMac:sum 	2438547.5509656
attr source  throughputSignalMac
attr title  "throughputMetricMac, sum"
scalar RSUScenario.node[5].nic.mac1609_4 	throughputMetricMac:mean 	124.37127306399
attr source  throughputSignalMac
attr title  "throughputMetricMac, mean"
scalar RSUScenario.node[5].veinsmobility 	startTime 	4.5
scalar RSUScenario.node[5].veinsmobility 	totalTime 	127.5
scalar RSUScenario.node[5].veinsmobility 	stopTime 	132.1
scalar RSUScenario.node[5].veinsmobility 	minSpeed 	0.035445204118914
scalar RSUScenario.node[5].veinsmobility 	maxSpeed 	31.289778644182
scalar RSUScenario.node[5].veinsmobility 	totalDistance 	3276.3912183604
scalar RSUScenario.node[5].veinsmobility 	totalCO2Emission 	732.82264242948
scalar RSUScenario.node[8].nic.phy80211p 	busyTime 	0.03756370860926
scalar RSUScenario.node[8].nic.phy80211p 	ncollisions 	43
scalar RSUScenario.node[8].nic.phy80211p 	nnot_decoded_collisons 	0
scalar RSUScenario.node[8].nic.mac1609_4 	throughputMetricMac 	149.90110715262
scalar RSUScenario.node[8].nic.mac1609_4 	throughputMbps 	0.15832582855354
scalar RSUScenario.node[8].nic.mac1609_4 	throughputControlMbps 	0
scalar RSUScenario.node[8].nic.mac1609_4 	receivedFramesLowerMsg 	19974
scalar RSUScenario.node[8].nic.mac1609_4 	receivedBitsLowerPackets 	0
scalar RSUScenario.node[8].nic.mac1609_4 	receivedBitsLoserWsm 	0
scalar RSUScenario.node[8].nic.mac1609_4 	packetsNotForMe 	0
scalar RSUScenario.node[8].nic.mac1609_4 	receivedTotalBits 	21096576
scalar RSUScenario.node[8].nic.mac1609_4 	collisionsPktNonDecoded 	0
scalar RSUScenario.node[8].nic.mac1609_4 	chUtilizationSCH1 	0.000265
scalar RSUScenario.node[8].nic.mac1609_4 	chUtilizationSCH2 	0
scalar RSUScenario.node[8].nic.mac1609_4 	chUtilizationSCH3 	0
scalar RSUScenario.node[8].nic.mac1609_4 	chUtilizationSCH4 	0
scalar RSUScenario.node[8].nic.mac1609_4 	chUtilizationCCH 	0.271575
scalar RSUScenario.node[8].nic.mac1609_4 	chUtilizationHPPS 	0
scalar RSUScenario.node[8].nic.mac1609_4 	chUtilizationCRIT_SOL 	0
scalar RSUScenario.node[8].nic.mac1609_4 	ReceivedUnicastPackets 	0
scalar RSUScenario.node[8].nic.mac1609_4 	ReceivedBroadcasts 	19974
scalar RSUScenario.node[8].nic.mac1609_4 	SentPackets 	1208
scalar RSUScenario.node[8].nic.mac1609_4 	SNIRLostPackets 	280
scalar RSUScenario.node[8].nic.mac1609_4 	RXTXLostPackets 	492
scalar RSUScenario.node[8].nic.mac1609_4 	TotalLostPackets 	772
scalar RSUScenario.node[8].nic.mac1609_4 	DroppedPacketsInMac 	0
scalar RSUScenario.node[8].nic.mac1609_4 	TooLittleTime 	0
scalar RSUScenario.node[8].nic.mac1609_4 	TimesIntoBackoff 	2415
scalar RSUScenario.node[8].nic.mac1609_4 	SlotsBackoff 	1848
scalar RSUScenario.node[8].nic.mac1609_4 	NumInternalContention 	0
scalar RSUScenario.node[8].nic.mac1609_4 	totalBusyTime 	4.756408
scalar RSUScenario.node[8].nic.mac1609_4 	throughputMetricMac:last 	149.90110715262
attr source  throughputSignalMac
attr title  "throughputMetricMac, last"
scalar RSUScenario.node[8].nic.mac1609_4 	throughputMetricMac:count 	19974
attr source  throughputSignalMac
attr title  "throughputMetricMac, count"
scalar RSUScenario.node[8].nic.mac1609_4 	throughputMetricMac:sum 	2420523.8351275
attr source  throughputSignalMac
attr title  "throughputMetricMac, sum"
scalar RSUScenario.node[8].nic.mac1609_4 	throughputMetricMac:mean 	121.18373060616
attr source  throughputSignalMac
attr title  "throughputMetricMac, mean"
scalar RSUScenario.node[8].veinsmobility 	startTime 	12.5
scalar RSUScenario.node[8].veinsmobility 	totalTime 	120.7
scalar RSUScenario.node[8].veinsmobility 	stopTime 	133.3
scalar RSUScenario.node[8].veinsmobility 	minSpeed 	0.25202279136959
scalar RSUScenario.node[8].veinsmobility 	maxSpeed 	31.289848152578
scalar RSUScenario.node[8].veinsmobility 	totalDistance 	3274.018770806
scalar RSUScenario.node[8].veinsmobility 	totalCO2Emission 	725.05963949574
scalar RSUScenario.node[9].nic.phy80211p 	busyTime 	0.040433028112442
scalar RSUScenario.node[9].nic.phy80211p 	ncollisions 	168
scalar RSUScenario.node[9].nic.phy80211p 	nnot_decoded_collisons 	0
scalar RSUScenario.node[9].nic.mac1609_4 	throughputMetricMac 	154.08759392048
scalar RSUScenario.node[9].nic.mac1609_4 	throughputMbps 	0.1627533919806
scalar RSUScenario.node[9].nic.mac1609_4 	throughputControlMbps 	0
scalar RSUScenario.node[9].nic.mac1609_4 	receivedFramesLowerMsg 	21518
scalar RSUScenario.node[9].nic.mac1609_4 	receivedBitsLowerPackets 	0
scalar RSUScenario.node[9].nic.mac1609_4 	receivedBitsLoserWsm 	0
scalar RSUScenario.node[9].nic.mac1609_4 	packetsNotForMe 	0
scalar RSUScenario.node[9].nic.mac1609_4 	receivedTotalBits 	22728160
scalar RSUScenario.node[9].nic.mac1609_4 	collisionsPktNonDecoded 	0
scalar RSUScenario.node[9].nic.mac1609_4 	chUtilizationSCH1 	0.000265
scalar RSUScenario.node[9].nic.mac1609_4 	chUtilizationSCH2 	0
scalar RSUScenario.node[9].nic.mac1609_4 	chUtilizationSCH3 	0
scalar RSUScenario.node[9].nic.mac1609_4 	chUtilizationSCH4 	0
scalar RSUScenario.node[9].nic.mac1609_4 	chUtilizationCCH 	0.280125
scalar RSUScenario.node[9].nic.mac1609_4 	chUtilizationHPPS 	0
scalar RSUScenario.node[9].nic.mac1609_4 	chUtilizationCRIT_SOL 	0
scalar RSUScenario.node[9].nic.mac1609_4 	ReceivedUnicastPackets 	0
scalar RSUScenario.node[9].nic.mac1609_4 	ReceivedBroadcasts 	21518
scalar RSUScenario.node[9].nic.mac1609_4 	SentPackets 	1246
scalar RSUScenario.node[9].nic.mac1609_4 	SNIRLostPackets 	950
scalar RSUScenario.node[9].nic.mac1609_4 	RXTXLostPackets 	0
scalar RSUScenario.node[9].nic.mac1609_4 	TotalLostPackets 	950
scalar RSUScenario.node[9].nic.mac1609_4 	DroppedPacketsInMac 	0
scalar RSUScenario.node[9].nic.mac1609_4 	TooLittleTime 	0
scalar RSUScenario.node[9].nic.mac1609_4 	TimesIntoBackoff 	1246
scalar RSUScenario.node[9].nic.mac1609_4 	SlotsBackoff 	1948
scalar RSUScenario.node[9].nic.mac1609_4 	NumInternalContention 	0
scalar RSUScenario.node[9].nic.mac1609_4 	totalBusyTime 	5.139054000506
scalar RSUScenario.node[9].nic.mac1609_4 	throughputMetricMac:last 	154.08759392048
attr source  throughputSignalMac
attr title  "throughputMetricMac, last"
scalar RSUScenario.node[9].nic.mac1609_4 	throughputMetricMac:count 	21518
attr source  throughputSignalMac
attr title  "throughputMetricMac, count"
scalar RSUScenario.node[9].nic.mac1609_4 	throughputMetricMac:sum 	2672425.3095178
attr source  throughputSignalMac
attr title  "throughputMetricMac, sum"
scalar RSUScenario.node[9].nic.mac1609_4 	throughputMetricMac:mean 	124.19487450125
attr source  throughputSignalMac
attr title  "throughputMetricMac, mean"
scalar RSUScenario.node[9].veinsmobility 	startTime 	15.2
scalar RSUScenario.node[9].veinsmobility 	totalTime 	124.4
scalar RSUScenario.node[9].veinsmobility 	stopTime 	139.7
scalar RSUScenario.node[9].veinsmobility 	minSpeed 	0.25968871896481
scalar RSUScenario.node[9].veinsmobility 	maxSpeed 	31.28976904911
scalar RSUScenario.node[9].veinsmobility 	totalDistance 	3273.6478458618
scalar RSUScenario.node[9].veinsmobility 	totalCO2Emission 	727.04056351109
scalar RSUScenario.node[7].nic.phy80211p 	busyTime 	0.038745329341312
scalar RSUScenario.node[7].nic.phy80211p 	ncollisions 	301
scalar RSUScenario.node[7].nic.phy80211p 	nnot_decoded_collisons 	0
scalar RSUScenario.node[7].nic.mac1609_4 	throughputMetricMac 	153.05911557114
scalar RSUScenario.node[7].nic.mac1609_4 	throughputMbps 	0.16166634153603
scalar RSUScenario.node[7].nic.mac1609_4 	throughputControlMbps 	0
scalar RSUScenario.node[7].nic.mac1609_4 	receivedFramesLowerMsg 	21956
scalar RSUScenario.node[7].nic.mac1609_4 	receivedBitsLowerPackets 	0
scalar RSUScenario.node[7].nic.mac1609_4 	receivedBitsLoserWsm 	0
scalar RSUScenario.node[7].nic.mac1609_4 	packetsNotForMe 	0
scalar RSUScenario.node[7].nic.mac1609_4 	receivedTotalBits 	23190688
scalar RSUScenario.node[7].nic.mac1609_4 	collisionsPktNonDecoded 	0
scalar RSUScenario.node[7].nic.mac1609_4 	chUtilizationSCH1 	0.000265
scalar RSUScenario.node[7].nic.mac1609_4 	chUtilizationSCH2 	0
scalar RSUScenario.node[7].nic.mac1609_4 	chUtilizationSCH3 	0
scalar RSUScenario.node[7].nic.mac1609_4 	chUtilizationSCH4 	0
scalar RSUScenario.node[7].nic.mac1609_4 	chUtilizationCCH 	0.3006
scalar RSUScenario.node[7].nic.mac1609_4 	chUtilizationHPPS 	0
scalar RSUScenario.node[7].nic.mac1609_4 	chUtilizationCRIT_SOL 	0
scalar RSUScenario.node[7].nic.mac1609_4 	ReceivedUnicastPackets 	0
scalar RSUScenario.node[7].nic.mac1609_4 	ReceivedBroadcasts 	21956
scalar RSUScenario.node[7].nic.mac1609_4 	SentPackets 	1337
scalar RSUScenario.node[7].nic.mac1609_4 	SNIRLostPackets 	1148
scalar RSUScenario.node[7].nic.mac1609_4 	RXTXLostPackets 	0
scalar RSUScenario.node[7].nic.mac1609_4 	TotalLostPackets 	1148
scalar RSUScenario.node[7].nic.mac1609_4 	DroppedPacketsInMac 	0
scalar RSUScenario.node[7].nic.mac1609_4 	TooLittleTime 	0
scalar RSUScenario.node[7].nic.mac1609_4 	TimesIntoBackoff 	1338
scalar RSUScenario.node[7].nic.mac1609_4 	SlotsBackoff 	2005
scalar RSUScenario.node[7].nic.mac1609_4 	NumInternalContention 	0
scalar RSUScenario.node[7].nic.mac1609_4 	totalBusyTime 	5.287433000958
scalar RSUScenario.node[7].nic.mac1609_4 	throughputMetricMac:last 	153.05911557114
attr source  throughputSignalMac
attr title  "throughputMetricMac, last"
scalar RSUScenario.node[7].nic.mac1609_4 	throughputMetricMac:count 	21956
attr source  throughputSignalMac
attr title  "throughputMetricMac, count"
scalar RSUScenario.node[7].nic.mac1609_4 	throughputMetricMac:sum 	2750575.3001699
attr source  throughputSignalMac
attr title  "throughputMetricMac, sum"
scalar RSUScenario.node[7].nic.mac1609_4 	throughputMetricMac:mean 	125.27670341455
attr source  throughputSignalMac
attr title  "throughputMetricMac, mean"
scalar RSUScenario.node[7].veinsmobility 	startTime 	9.9
scalar RSUScenario.node[7].veinsmobility 	totalTime 	133.5
scalar RSUScenario.node[7].veinsmobility 	stopTime 	143.5
scalar RSUScenario.node[7].veinsmobility 	minSpeed 	0.00034407022546096
scalar RSUScenario.node[7].veinsmobility 	maxSpeed 	31.289932143327
scalar RSUScenario.node[7].veinsmobility 	totalDistance 	3275.7550206431
scalar RSUScenario.node[7].veinsmobility 	totalCO2Emission 	737.31304914551
scalar RSUScenario.node[11].nic.phy80211p 	busyTime 	0.039027508090606
scalar RSUScenario.node[11].nic.phy80211p 	ncollisions 	670
scalar RSUScenario.node[11].nic.phy80211p 	nnot_decoded_collisons 	0
scalar RSUScenario.node[11].nic.mac1609_4 	throughputMetricMac 	140.08503782829
scalar RSUScenario.node[11].nic.mac1609_4 	throughputMbps 	0.14796541748179
scalar RSUScenario.node[11].nic.mac1609_4 	throughputControlMbps 	0
scalar RSUScenario.node[11].nic.mac1609_4 	receivedFramesLowerMsg 	20263
scalar RSUScenario.node[11].nic.mac1609_4 	receivedBitsLowerPackets 	0
scalar RSUScenario.node[11].nic.mac1609_4 	receivedBitsLoserWsm 	0
scalar RSUScenario.node[11].nic.mac1609_4 	packetsNotForMe 	0
scalar RSUScenario.node[11].nic.mac1609_4 	receivedTotalBits 	21402880
scalar RSUScenario.node[11].nic.mac1609_4 	collisionsPktNonDecoded 	0
scalar RSUScenario.node[11].nic.mac1609_4 	chUtilizationSCH1 	0.000265
scalar RSUScenario.node[11].nic.mac1609_4 	chUtilizationSCH2 	0
scalar RSUScenario.node[11].nic.mac1609_4 	chUtilizationSCH3 	0
scalar RSUScenario.node[11].nic.mac1609_4 	chUtilizationSCH4 	0
scalar RSUScenario.node[11].nic.mac1609_4 	chUtilizationCCH 	0.2781
scalar RSUScenario.node[11].nic.mac1609_4 	chUtilizationHPPS 	0
scalar RSUScenario.node[11].nic.mac1609_4 	chUtilizationCRIT_SOL 	0
scalar RSUScenario.node[11].nic.mac1609_4 	ReceivedUnicastPackets 	0
scalar RSUScenario.node[11].nic.mac1609_4 	ReceivedBroadcasts 	20263
scalar RSUScenario.node[11].nic.mac1609_4 	SentPackets 	1237
scalar RSUScenario.node[11].nic.mac1609_4 	SNIRLostPackets 	1267
scalar RSUScenario.node[11].nic.mac1609_4 	RXTXLostPackets 	269
scalar RSUScenario.node[11].nic.mac1609_4 	TotalLostPackets 	1536
scalar RSUScenario.node[11].nic.mac1609_4 	DroppedPacketsInMac 	0
scalar RSUScenario.node[11].nic.mac1609_4 	TooLittleTime 	0
scalar RSUScenario.node[11].nic.mac1609_4 	TimesIntoBackoff 	1267
scalar RSUScenario.node[11].nic.mac1609_4 	SlotsBackoff 	1896
scalar RSUScenario.node[11].nic.mac1609_4 	NumInternalContention 	0
scalar RSUScenario.node[11].nic.mac1609_4 	totalBusyTime 	4.968357
scalar RSUScenario.node[11].nic.mac1609_4 	throughputMetricMac:last 	140.08503782829
attr source  throughputSignalMac
attr title  "throughputMetricMac, last"
scalar RSUScenario.node[11].nic.mac1609_4 	throughputMetricMac:count 	20263
attr source  throughputSignalMac
attr title  "throughputMetricMac, count"
scalar RSUScenario.node[11].nic.mac1609_4 	throughputMetricMac:sum 	2253110.9673831
attr source  throughputSignalMac
attr title  "throughputMetricMac, sum"
scalar RSUScenario.node[11].nic.mac1609_4 	throughputMetricMac:mean 	111.19335574116
attr source  throughputSignalMac
attr title  "throughputMetricMac, mean"
scalar RSUScenario.node[11].veinsmobility 	startTime 	21.1
scalar RSUScenario.node[11].veinsmobility 	totalTime 	123.5
scalar RSUScenario.node[11].veinsmobility 	stopTime 	144.7
scalar RSUScenario.node[11].veinsmobility 	minSpeed 	0.25330044270842
scalar RSUScenario.node[11].veinsmobility 	maxSpeed 	31.2888065048
scalar RSUScenario.node[11].veinsmobility 	totalDistance 	3273.5941892828
scalar RSUScenario.node[11].veinsmobility 	totalCO2Emission 	728.19309558285
scalar RSUScenario.node[13].nic.phy80211p 	busyTime 	0.04171627906976
scalar RSUScenario.node[13].nic.phy80211p 	ncollisions 	778
scalar RSUScenario.node[13].nic.phy80211p 	nnot_decoded_collisons 	0
scalar RSUScenario.node[13].nic.mac1609_4 	throughputMetricMac 	140.64633419604
scalar RSUScenario.node[13].nic.mac1609_4 	throughputMbps 	0.14853772072256
scalar RSUScenario.node[13].nic.mac1609_4 	throughputControlMbps 	0
scalar RSUScenario.node[13].nic.mac1609_4 	receivedFramesLowerMsg 	20738
scalar RSUScenario.node[13].nic.mac1609_4 	receivedBitsLowerPackets 	0
scalar RSUScenario.node[13].nic.mac1609_4 	receivedBitsLoserWsm 	0
scalar RSUScenario.node[13].nic.mac1609_4 	packetsNotForMe 	0
scalar RSUScenario.node[13].nic.mac1609_4 	receivedTotalBits 	21901568
scalar RSUScenario.node[13].nic.mac1609_4 	collisionsPktNonDecoded 	0
scalar RSUScenario.node[13].nic.mac1609_4 	chUtilizationSCH1 	0.000265
scalar RSUScenario.node[13].nic.mac1609_4 	chUtilizationSCH2 	0
scalar RSUScenario.node[13].nic.mac1609_4 	chUtilizationSCH3 	0
scalar RSUScenario.node[13].nic.mac1609_4 	chUtilizationSCH4 	0
scalar RSUScenario.node[13].nic.mac1609_4 	chUtilizationCCH 	0.2709
scalar RSUScenario.node[13].nic.mac1609_4 	chUtilizationHPPS 	0
scalar RSUScenario.node[13].nic.mac1609_4 	chUtilizationCRIT_SOL 	0
scalar RSUScenario.node[13].nic.mac1609_4 	ReceivedUnicastPackets 	0
scalar RSUScenario.node[13].nic.mac1609_4 	ReceivedBroadcasts 	20738
scalar RSUScenario.node[13].nic.mac1609_4 	SentPackets 	1205
scalar RSUScenario.node[13].nic.mac1609_4 	SNIRLostPackets 	1682
scalar RSUScenario.node[13].nic.mac1609_4 	RXTXLostPackets 	0
scalar RSUScenario.node[13].nic.mac1609_4 	TotalLostPackets 	1682
scalar RSUScenario.node[13].nic.mac1609_4 	DroppedPacketsInMac 	0
scalar RSUScenario.node[13].nic.mac1609_4 	TooLittleTime 	0
scalar RSUScenario.node[13].nic.mac1609_4 	TimesIntoBackoff 	1205
scalar RSUScenario.node[13].nic.mac1609_4 	SlotsBackoff 	1733
scalar RSUScenario.node[13].nic.mac1609_4 	NumInternalContention 	0
scalar RSUScenario.node[13].nic.mac1609_4 	totalBusyTime 	5.09123661719
scalar RSUScenario.node[13].nic.mac1609_4 	throughputMetricMac:last 	140.64633419604
attr source  throughputSignalMac
attr title  "throughputMetricMac, last"
scalar RSUScenario.node[13].nic.mac1609_4 	throughputMetricMac:count 	20738
attr source  throughputSignalMac
attr title  "throughputMetricMac, count"
scalar RSUScenario.node[13].nic.mac1609_4 	throughputMetricMac:sum 	2234175.2904327
attr source  throughputSignalMac
attr title  "throughputMetricMac, sum"
scalar RSUScenario.node[13].nic.mac1609_4 	throughputMetricMac:mean 	107.73340198827
attr source  throughputSignalMac
attr title  "throughputMetricMac, mean"
scalar RSUScenario.node[13].veinsmobility 	startTime 	27.1
scalar RSUScenario.node[13].veinsmobility 	totalTime 	120.3
scalar RSUScenario.node[13].veinsmobility 	stopTime 	147.5
scalar RSUScenario.node[13].veinsmobility 	minSpeed 	0.24964375452488
scalar RSUScenario.node[13].veinsmobility 	maxSpeed 	31.289899611389
scalar RSUScenario.node[13].veinsmobility 	totalDistance 	3272.0609459873
scalar RSUScenario.node[13].veinsmobility 	totalCO2Emission 	714.63367438137
scalar RSUScenario.node[0].nic.phy80211p 	busyTime 	0.037896346414071
scalar RSUScenario.node[0].nic.phy80211p 	ncollisions 	788
scalar RSUScenario.node[0].nic.phy80211p 	nnot_decoded_collisons 	0
scalar RSUScenario.node[0].nic.mac1609_4 	throughputMetricMac 	157.6079708791
scalar RSUScenario.node[0].nic.mac1609_4 	throughputMbps 	0.16646886388228
scalar RSUScenario.node[0].nic.mac1609_4 	throughputControlMbps 	0
scalar RSUScenario.node[0].nic.mac1609_4 	receivedFramesLowerMsg 	23302
scalar RSUScenario.node[0].nic.mac1609_4 	receivedBitsLowerPackets 	0
scalar RSUScenario.node[0].nic.mac1609_4 	receivedBitsLoserWsm 	0
scalar RSUScenario.node[0].nic.mac1609_4 	packetsNotForMe 	0
scalar RSUScenario.node[0].nic.mac1609_4 	receivedTotalBits 	24612064
scalar RSUScenario.node[0].nic.mac1609_4 	collisionsPktNonDecoded 	0
scalar RSUScenario.node[0].nic.mac1609_4 	chUtilizationSCH1 	0.000265
scalar RSUScenario.node[0].nic.mac1609_4 	chUtilizationSCH2 	0
scalar RSUScenario.node[0].nic.mac1609_4 	chUtilizationSCH3 	0
scalar RSUScenario.node[0].nic.mac1609_4 	chUtilizationSCH4 	0
scalar RSUScenario.node[0].nic.mac1609_4 	chUtilizationCCH 	0.33255
scalar RSUScenario.node[0].nic.mac1609_4 	chUtilizationHPPS 	0
scalar RSUScenario.node[0].nic.mac1609_4 	chUtilizationCRIT_SOL 	0
scalar RSUScenario.node[0].nic.mac1609_4 	ReceivedUnicastPackets 	0
scalar RSUScenario.node[0].nic.mac1609_4 	ReceivedBroadcasts 	23302
scalar RSUScenario.node[0].nic.mac1609_4 	SentPackets 	1479
scalar RSUScenario.node[0].nic.mac1609_4 	SNIRLostPackets 	1698
scalar RSUScenario.node[0].nic.mac1609_4 	RXTXLostPackets 	0
scalar RSUScenario.node[0].nic.mac1609_4 	TotalLostPackets 	1698
scalar RSUScenario.node[0].nic.mac1609_4 	DroppedPacketsInMac 	0
scalar RSUScenario.node[0].nic.mac1609_4 	TooLittleTime 	0
scalar RSUScenario.node[0].nic.mac1609_4 	TimesIntoBackoff 	1480
scalar RSUScenario.node[0].nic.mac1609_4 	SlotsBackoff 	2181
scalar RSUScenario.node[0].nic.mac1609_4 	NumInternalContention 	0
scalar RSUScenario.node[0].nic.mac1609_4 	totalBusyTime 	5.729981147751
scalar RSUScenario.node[0].nic.mac1609_4 	throughputMetricMac:last 	157.6079708791
attr source  throughputSignalMac
attr title  "throughputMetricMac, last"
scalar RSUScenario.node[0].nic.mac1609_4 	throughputMetricMac:count 	23302
attr source  throughputSignalMac
attr title  "throughputMetricMac, count"
scalar RSUScenario.node[0].nic.mac1609_4 	throughputMetricMac:sum 	3038914.536253
attr source  throughputSignalMac
attr title  "throughputMetricMac, sum"
scalar RSUScenario.node[0].nic.mac1609_4 	throughputMetricMac:mean 	130.41432221496
attr source  throughputSignalMac
attr title  "throughputMetricMac, mean"
scalar RSUScenario.node[0].veinsmobility 	startTime 	0.1
scalar RSUScenario.node[0].veinsmobility 	totalTime 	147.7
scalar RSUScenario.node[0].veinsmobility 	stopTime 	147.9
scalar RSUScenario.node[0].veinsmobility 	minSpeed 	0
scalar RSUScenario.node[0].veinsmobility 	maxSpeed 	31.289842172624
scalar RSUScenario.node[0].veinsmobility 	totalDistance 	3269.030946429
scalar RSUScenario.node[0].veinsmobility 	totalCO2Emission 	763.72012313811
scalar RSUScenario.node[12].nic.phy80211p 	busyTime 	0.042141552941172
scalar RSUScenario.node[12].nic.phy80211p 	ncollisions 	1061
scalar RSUScenario.node[12].nic.phy80211p 	nnot_decoded_collisons 	0
scalar RSUScenario.node[12].nic.mac1609_4 	throughputMetricMac 	144.78595122902
scalar RSUScenario.node[12].nic.mac1609_4 	throughputMbps 	0.15292943844154
scalar RSUScenario.node[12].nic.mac1609_4 	throughputControlMbps 	0
scalar RSUScenario.node[12].nic.mac1609_4 	receivedFramesLowerMsg 	21942
scalar RSUScenario.node[12].nic.mac1609_4 	receivedBitsLowerPackets 	0
scalar RSUScenario.node[12].nic.mac1609_4 	receivedBitsLoserWsm 	0
scalar RSUScenario.node[12].nic.mac1609_4 	packetsNotForMe 	0
scalar RSUScenario.node[12].nic.mac1609_4 	receivedTotalBits 	23176128
scalar RSUScenario.node[12].nic.mac1609_4 	collisionsPktNonDecoded 	0
scalar RSUScenario.node[12].nic.mac1609_4 	chUtilizationSCH1 	0.000265
scalar RSUScenario.node[12].nic.mac1609_4 	chUtilizationSCH2 	0
scalar RSUScenario.node[12].nic.mac1609_4 	chUtilizationSCH3 	0
scalar RSUScenario.node[12].nic.mac1609_4 	chUtilizationSCH4 	0
scalar RSUScenario.node[12].nic.mac1609_4 	chUtilizationCCH 	0.286875
scalar RSUScenario.node[12].nic.mac1609_4 	chUtilizationHPPS 	0
scalar RSUScenario.node[12].nic.mac1609_4 	chUtilizationCRIT_SOL 	0
scalar RSUScenario.node[12].nic.mac1609_4 	ReceivedUnicastPackets 	0
scalar RSUScenario.node[12].nic.mac1609_4 	ReceivedBroadcasts 	21942
scalar RSUScenario.node[12].nic.mac1609_4 	SentPackets 	1276
scalar RSUScenario.node[12].nic.mac1609_4 	SNIRLostPackets 	2040
scalar RSUScenario.node[12].nic.mac1609_4 	RXTXLostPackets 	0
scalar RSUScenario.node[12].nic.mac1609_4 	TotalLostPackets 	2040
scalar RSUScenario.node[12].nic.mac1609_4 	DroppedPacketsInMac 	0
scalar RSUScenario.node[12].nic.mac1609_4 	TooLittleTime 	0
scalar RSUScenario.node[12].nic.mac1609_4 	TimesIntoBackoff 	1276
scalar RSUScenario.node[12].nic.mac1609_4 	SlotsBackoff 	1915
scalar RSUScenario.node[12].nic.mac1609_4 	NumInternalContention 	0
scalar RSUScenario.node[12].nic.mac1609_4 	totalBusyTime 	5.440815509786
scalar RSUScenario.node[12].nic.mac1609_4 	throughputMetricMac:last 	144.78595122902
attr source  throughputSignalMac
attr title  "throughputMetricMac, last"
scalar RSUScenario.node[12].nic.mac1609_4 	throughputMetricMac:count 	21942
attr source  throughputSignalMac
attr title  "throughputMetricMac, count"
scalar RSUScenario.node[12].nic.mac1609_4 	throughputMetricMac:sum 	2478400.0744623
attr source  throughputSignalMac
attr title  "throughputMetricMac, sum"
scalar RSUScenario.node[12].nic.mac1609_4 	throughputMetricMac:mean 	112.95233226061
attr source  throughputSignalMac
attr title  "throughputMetricMac, mean"
scalar RSUScenario.node[12].veinsmobility 	startTime 	24.1
scalar RSUScenario.node[12].veinsmobility 	totalTime 	127.4
scalar RSUScenario.node[12].veinsmobility 	stopTime 	151.6
scalar RSUScenario.node[12].veinsmobility 	minSpeed 	0.017765416196368
scalar RSUScenario.node[12].veinsmobility 	maxSpeed 	31.289996850132
scalar RSUScenario.node[12].veinsmobility 	totalDistance 	3275.6480079435
scalar RSUScenario.node[12].veinsmobility 	totalCO2Emission 	727.03682601139
scalar RSUScenario.node[15].nic.phy80211p 	busyTime 	0.043071284175636
scalar RSUScenario.node[15].nic.phy80211p 	ncollisions 	1092
scalar RSUScenario.node[15].nic.phy80211p 	nnot_decoded_collisons 	0
scalar RSUScenario.node[15].nic.mac1609_4 	throughputMetricMac 	137.15314605208
scalar RSUScenario.node[15].nic.mac1609_4 	throughputMbps 	0.14484974847232
scalar RSUScenario.node[15].nic.mac1609_4 	throughputControlMbps 	0
scalar RSUScenario.node[15].nic.mac1609_4 	receivedFramesLowerMsg 	21087
scalar RSUScenario.node[15].nic.mac1609_4 	receivedBitsLowerPackets 	0
scalar RSUScenario.node[15].nic.mac1609_4 	receivedBitsLoserWsm 	0
scalar RSUScenario.node[15].nic.mac1609_4 	packetsNotForMe 	0
scalar RSUScenario.node[15].nic.mac1609_4 	receivedTotalBits 	22270336
scalar RSUScenario.node[15].nic.mac1609_4 	collisionsPktNonDecoded 	0
scalar RSUScenario.node[15].nic.mac1609_4 	chUtilizationSCH1 	0.000265
scalar RSUScenario.node[15].nic.mac1609_4 	chUtilizationSCH2 	0
scalar RSUScenario.node[15].nic.mac1609_4 	chUtilizationSCH3 	0
scalar RSUScenario.node[15].nic.mac1609_4 	chUtilizationSCH4 	0
scalar RSUScenario.node[15].nic.mac1609_4 	chUtilizationCCH 	0.271575
scalar RSUScenario.node[15].nic.mac1609_4 	chUtilizationHPPS 	0
scalar RSUScenario.node[15].nic.mac1609_4 	chUtilizationCRIT_SOL 	0
scalar RSUScenario.node[15].nic.mac1609_4 	ReceivedUnicastPackets 	0
scalar RSUScenario.node[15].nic.mac1609_4 	ReceivedBroadcasts 	21087
scalar RSUScenario.node[15].nic.mac1609_4 	SentPackets 	1208
scalar RSUScenario.node[15].nic.mac1609_4 	SNIRLostPackets 	2119
scalar RSUScenario.node[15].nic.mac1609_4 	RXTXLostPackets 	0
scalar RSUScenario.node[15].nic.mac1609_4 	TotalLostPackets 	2119
scalar RSUScenario.node[15].nic.mac1609_4 	DroppedPacketsInMac 	0
scalar RSUScenario.node[15].nic.mac1609_4 	TooLittleTime 	0
scalar RSUScenario.node[15].nic.mac1609_4 	TimesIntoBackoff 	1208
scalar RSUScenario.node[15].nic.mac1609_4 	SlotsBackoff 	1863
scalar RSUScenario.node[15].nic.mac1609_4 	NumInternalContention 	0
scalar RSUScenario.node[15].nic.mac1609_4 	totalBusyTime 	5.240416
scalar RSUScenario.node[15].nic.mac1609_4 	throughputMetricMac:last 	137.15314605208
attr source  throughputSignalMac
attr title  "throughputMetricMac, last"
scalar RSUScenario.node[15].nic.mac1609_4 	throughputMetricMac:count 	21087
attr source  throughputSignalMac
attr title  "throughputMetricMac, count"
scalar RSUScenario.node[15].nic.mac1609_4 	throughputMetricMac:sum 	2189733.2234318
attr source  throughputSignalMac
attr title  "throughputMetricMac, sum"
scalar RSUScenario.node[15].nic.mac1609_4 	throughputMetricMac:mean 	103.84280473428
attr source  throughputSignalMac
attr title  "throughputMetricMac, mean"
scalar RSUScenario.node[15].veinsmobility 	startTime 	33.1
scalar RSUScenario.node[15].veinsmobility 	totalTime 	120.6
scalar RSUScenario.node[15].veinsmobility 	stopTime 	153.8
scalar RSUScenario.node[15].veinsmobility 	minSpeed 	0.25091422845307
scalar RSUScenario.node[15].veinsmobility 	maxSpeed 	31.289648169468
scalar RSUScenario.node[15].veinsmobility 	totalDistance 	3276.2187087972
scalar RSUScenario.node[15].veinsmobility 	totalCO2Emission 	713.89128064113
scalar RSUScenario.node[14].nic.phy80211p 	busyTime 	0.045288861726509
scalar RSUScenario.node[14].nic.phy80211p 	ncollisions 	1126
scalar RSUScenario.node[14].nic.phy80211p 	nnot_decoded_collisons 	0
scalar RSUScenario.node[14].nic.mac1609_4 	throughputMetricMac 	148.2405709392
scalar RSUScenario.node[14].nic.mac1609_4 	throughputMbps 	0.15655874397441
scalar RSUScenario.node[14].nic.mac1609_4 	throughputControlMbps 	0
scalar RSUScenario.node[14].nic.mac1609_4 	receivedFramesLowerMsg 	23859
scalar RSUScenario.node[14].nic.mac1609_4 	receivedBitsLowerPackets 	0
scalar RSUScenario.node[14].nic.mac1609_4 	receivedBitsLoserWsm 	0
scalar RSUScenario.node[14].nic.mac1609_4 	packetsNotForMe 	0
scalar RSUScenario.node[14].nic.mac1609_4 	receivedTotalBits 	25197792
scalar RSUScenario.node[14].nic.mac1609_4 	collisionsPktNonDecoded 	0
scalar RSUScenario.node[14].nic.mac1609_4 	chUtilizationSCH1 	0.000265
scalar RSUScenario.node[14].nic.mac1609_4 	chUtilizationSCH2 	0
scalar RSUScenario.node[14].nic.mac1609_4 	chUtilizationSCH3 	0
scalar RSUScenario.node[14].nic.mac1609_4 	chUtilizationSCH4 	0
scalar RSUScenario.node[14].nic.mac1609_4 	chUtilizationCCH 	0.294525
scalar RSUScenario.node[14].nic.mac1609_4 	chUtilizationHPPS 	0
scalar RSUScenario.node[14].nic.mac1609_4 	chUtilizationCRIT_SOL 	0
scalar RSUScenario.node[14].nic.mac1609_4 	ReceivedUnicastPackets 	0
scalar RSUScenario.node[14].nic.mac1609_4 	ReceivedBroadcasts 	23859
scalar RSUScenario.node[14].nic.mac1609_4 	SentPackets 	1310
scalar RSUScenario.node[14].nic.mac1609_4 	SNIRLostPackets 	2604
scalar RSUScenario.node[14].nic.mac1609_4 	RXTXLostPackets 	0
scalar RSUScenario.node[14].nic.mac1609_4 	TotalLostPackets 	2604
scalar RSUScenario.node[14].nic.mac1609_4 	DroppedPacketsInMac 	0
scalar RSUScenario.node[14].nic.mac1609_4 	TooLittleTime 	0
scalar RSUScenario.node[14].nic.mac1609_4 	TimesIntoBackoff 	1311
scalar RSUScenario.node[14].nic.mac1609_4 	SlotsBackoff 	2003
scalar RSUScenario.node[14].nic.mac1609_4 	NumInternalContention 	0
scalar RSUScenario.node[14].nic.mac1609_4 	totalBusyTime 	5.891953629042
scalar RSUScenario.node[14].nic.mac1609_4 	throughputMetricMac:last 	148.2405709392
attr source  throughputSignalMac
attr title  "throughputMetricMac, last"
scalar RSUScenario.node[14].nic.mac1609_4 	throughputMetricMac:count 	23859
attr source  throughputSignalMac
attr title  "throughputMetricMac, count"
scalar RSUScenario.node[14].nic.mac1609_4 	throughputMetricMac:sum 	2705556.9526337
attr source  throughputSignalMac
attr title  "throughputMetricMac, sum"
scalar RSUScenario.node[14].nic.mac1609_4 	throughputMetricMac:mean 	113.39775148304
attr source  throughputSignalMac
attr title  "throughputMetricMac, mean"
scalar RSUScenario.node[14].veinsmobility 	startTime 	30.1
scalar RSUScenario.node[14].veinsmobility 	totalTime 	130.8
scalar RSUScenario.node[14].veinsmobility 	stopTime 	161
scalar RSUScenario.node[14].veinsmobility 	minSpeed 	0.0024907338297726
scalar RSUScenario.node[14].veinsmobility 	maxSpeed 	31.2898190734
scalar RSUScenario.node[14].veinsmobility 	totalDistance 	3276.5570219859
scalar RSUScenario.node[14].veinsmobility 	totalCO2Emission 	733.9350741195
scalar RSUScenario.node[17].nic.phy80211p 	busyTime 	0.047232298943947
scalar RSUScenario.node[17].nic.phy80211p 	ncollisions 	1086
scalar RSUScenario.node[17].nic.phy80211p 	nnot_decoded_collisons 	0
scalar RSUScenario.node[17].nic.mac1609_4 	throughputMetricMac 	144.14623043492
scalar RSUScenario.node[17].nic.mac1609_4 	throughputMbps 	0.1522363782586
scalar RSUScenario.node[17].nic.mac1609_4 	throughputControlMbps 	0
scalar RSUScenario.node[17].nic.mac1609_4 	receivedFramesLowerMsg 	23373
scalar RSUScenario.node[17].nic.mac1609_4 	receivedBitsLowerPackets 	0
scalar RSUScenario.node[17].nic.mac1609_4 	receivedBitsLoserWsm 	0
scalar RSUScenario.node[17].nic.mac1609_4 	packetsNotForMe 	0
scalar RSUScenario.node[17].nic.mac1609_4 	receivedTotalBits 	24684800
scalar RSUScenario.node[17].nic.mac1609_4 	collisionsPktNonDecoded 	0
scalar RSUScenario.node[17].nic.mac1609_4 	chUtilizationSCH1 	0.000265
scalar RSUScenario.node[17].nic.mac1609_4 	chUtilizationSCH2 	0
scalar RSUScenario.node[17].nic.mac1609_4 	chUtilizationSCH3 	0
scalar RSUScenario.node[17].nic.mac1609_4 	chUtilizationSCH4 	0
scalar RSUScenario.node[17].nic.mac1609_4 	chUtilizationCCH 	0.276975
scalar RSUScenario.node[17].nic.mac1609_4 	chUtilizationHPPS 	0
scalar RSUScenario.node[17].nic.mac1609_4 	chUtilizationCRIT_SOL 	0
scalar RSUScenario.node[17].nic.mac1609_4 	ReceivedUnicastPackets 	0
scalar RSUScenario.node[17].nic.mac1609_4 	ReceivedBroadcasts 	23373
scalar RSUScenario.node[17].nic.mac1609_4 	SentPackets 	1232
scalar RSUScenario.node[17].nic.mac1609_4 	SNIRLostPackets 	2581
scalar RSUScenario.node[17].nic.mac1609_4 	RXTXLostPackets 	1
scalar RSUScenario.node[17].nic.mac1609_4 	TotalLostPackets 	2582
scalar RSUScenario.node[17].nic.mac1609_4 	DroppedPacketsInMac 	0
scalar RSUScenario.node[17].nic.mac1609_4 	TooLittleTime 	0
scalar RSUScenario.node[17].nic.mac1609_4 	TimesIntoBackoff 	1233
scalar RSUScenario.node[17].nic.mac1609_4 	SlotsBackoff 	1858
scalar RSUScenario.node[17].nic.mac1609_4 	NumInternalContention 	0
scalar RSUScenario.node[17].nic.mac1609_4 	totalBusyTime 	5.756616
scalar RSUScenario.node[17].nic.mac1609_4 	throughputMetricMac:last 	144.14623043492
attr source  throughputSignalMac
attr title  "throughputMetricMac, last"
scalar RSUScenario.node[17].nic.mac1609_4 	throughputMetricMac:count 	23373
attr source  throughputSignalMac
attr title  "throughputMetricMac, count"
scalar RSUScenario.node[17].nic.mac1609_4 	throughputMetricMac:sum 	2473055.1009131
attr source  throughputSignalMac
attr title  "throughputMetricMac, sum"
scalar RSUScenario.node[17].nic.mac1609_4 	throughputMetricMac:mean 	105.80820181034
attr source  throughputSignalMac
attr title  "throughputMetricMac, mean"
scalar RSUScenario.node[17].veinsmobility 	startTime 	39.1
scalar RSUScenario.node[17].veinsmobility 	totalTime 	123
scalar RSUScenario.node[17].veinsmobility 	stopTime 	162.2
scalar RSUScenario.node[17].veinsmobility 	minSpeed 	0.24797553929314
scalar RSUScenario.node[17].veinsmobility 	maxSpeed 	31.289821383695
scalar RSUScenario.node[17].veinsmobility 	totalDistance 	3274.3847933874
scalar RSUScenario.node[17].veinsmobility 	totalCO2Emission 	727.9310731873
scalar RSUScenario.node[19].nic.phy80211p 	busyTime 	0.049000299750208
scalar RSUScenario.node[19].nic.phy80211p 	ncollisions 	600
scalar RSUScenario.node[19].nic.phy80211p 	nnot_decoded_collisons 	0
scalar RSUScenario.node[19].nic.mac1609_4 	throughputMetricMac 	149.82333299717
scalar RSUScenario.node[19].nic.mac1609_4 	throughputMbps 	0.15823242869122
scalar RSUScenario.node[19].nic.mac1609_4 	throughputControlMbps 	0
scalar RSUScenario.node[19].nic.mac1609_4 	receivedFramesLowerMsg 	24743
scalar RSUScenario.node[19].nic.mac1609_4 	receivedBitsLowerPackets 	0
scalar RSUScenario.node[19].nic.mac1609_4 	receivedBitsLoserWsm 	0
scalar RSUScenario.node[19].nic.mac1609_4 	packetsNotForMe 	0
scalar RSUScenario.node[19].nic.mac1609_4 	receivedTotalBits 	26131744
scalar RSUScenario.node[19].nic.mac1609_4 	collisionsPktNonDecoded 	0
scalar RSUScenario.node[19].nic.mac1609_4 	chUtilizationSCH1 	0.000265
scalar RSUScenario.node[19].nic.mac1609_4 	chUtilizationSCH2 	0
scalar RSUScenario.node[19].nic.mac1609_4 	chUtilizationSCH3 	0
scalar RSUScenario.node[19].nic.mac1609_4 	chUtilizationSCH4 	0
scalar RSUScenario.node[19].nic.mac1609_4 	chUtilizationCCH 	0.270225
scalar RSUScenario.node[19].nic.mac1609_4 	chUtilizationHPPS 	0
scalar RSUScenario.node[19].nic.mac1609_4 	chUtilizationCRIT_SOL 	0
scalar RSUScenario.node[19].nic.mac1609_4 	ReceivedUnicastPackets 	0
scalar RSUScenario.node[19].nic.mac1609_4 	ReceivedBroadcasts 	24743
scalar RSUScenario.node[19].nic.mac1609_4 	SentPackets 	1202
scalar RSUScenario.node[19].nic.mac1609_4 	SNIRLostPackets 	970
scalar RSUScenario.node[19].nic.mac1609_4 	RXTXLostPackets 	606
scalar RSUScenario.node[19].nic.mac1609_4 	TotalLostPackets 	1576
scalar RSUScenario.node[19].nic.mac1609_4 	DroppedPacketsInMac 	0
scalar RSUScenario.node[19].nic.mac1609_4 	TooLittleTime 	0
scalar RSUScenario.node[19].nic.mac1609_4 	TimesIntoBackoff 	2403
scalar RSUScenario.node[19].nic.mac1609_4 	SlotsBackoff 	1807
scalar RSUScenario.node[19].nic.mac1609_4 	NumInternalContention 	0
scalar RSUScenario.node[19].nic.mac1609_4 	totalBusyTime 	5.947922
scalar RSUScenario.node[19].nic.mac1609_4 	throughputMetricMac:last 	149.82333299717
attr source  throughputSignalMac
attr title  "throughputMetricMac, last"
scalar RSUScenario.node[19].nic.mac1609_4 	throughputMetricMac:count 	24743
attr source  throughputSignalMac
attr title  "throughputMetricMac, count"
scalar RSUScenario.node[19].nic.mac1609_4 	throughputMetricMac:sum 	2653760.131204
attr source  throughputSignalMac
attr title  "throughputMetricMac, sum"
scalar RSUScenario.node[19].nic.mac1609_4 	throughputMetricMac:mean 	107.25296573593
attr source  throughputSignalMac
attr title  "throughputMetricMac, mean"
scalar RSUScenario.node[19].veinsmobility 	startTime 	45.1
scalar RSUScenario.node[19].veinsmobility 	totalTime 	120
scalar RSUScenario.node[19].veinsmobility 	stopTime 	165.2
scalar RSUScenario.node[19].veinsmobility 	minSpeed 	0.25652779084258
scalar RSUScenario.node[19].veinsmobility 	maxSpeed 	31.289975832861
scalar RSUScenario.node[19].veinsmobility 	totalDistance 	3275.2685768664
scalar RSUScenario.node[19].veinsmobility 	totalCO2Emission 	713.31864697774
scalar RSUScenario.node[10].nic.phy80211p 	busyTime 	0.046616697986584
scalar RSUScenario.node[10].nic.phy80211p 	ncollisions 	779
scalar RSUScenario.node[10].nic.phy80211p 	nnot_decoded_collisons 	0
scalar RSUScenario.node[10].nic.mac1609_4 	throughputMetricMac 	173.25575188974
scalar RSUScenario.node[10].nic.mac1609_4 	throughputMbps 	0.18300232479076
scalar RSUScenario.node[10].nic.mac1609_4 	throughputControlMbps 	0
scalar RSUScenario.node[10].nic.mac1609_4 	receivedFramesLowerMsg 	28942
scalar RSUScenario.node[10].nic.mac1609_4 	receivedBitsLowerPackets 	0
scalar RSUScenario.node[10].nic.mac1609_4 	receivedBitsLoserWsm 	0
scalar RSUScenario.node[10].nic.mac1609_4 	packetsNotForMe 	0
scalar RSUScenario.node[10].nic.mac1609_4 	receivedTotalBits 	30570144
scalar RSUScenario.node[10].nic.mac1609_4 	collisionsPktNonDecoded 	0
scalar RSUScenario.node[10].nic.mac1609_4 	chUtilizationSCH1 	0.000265
scalar RSUScenario.node[10].nic.mac1609_4 	chUtilizationSCH2 	0
scalar RSUScenario.node[10].nic.mac1609_4 	chUtilizationSCH3 	0
scalar RSUScenario.node[10].nic.mac1609_4 	chUtilizationSCH4 	0
scalar RSUScenario.node[10].nic.mac1609_4 	chUtilizationCCH 	0.33525
scalar RSUScenario.node[10].nic.mac1609_4 	chUtilizationHPPS 	0
scalar RSUScenario.node[10].nic.mac1609_4 	chUtilizationCRIT_SOL 	0
scalar RSUScenario.node[10].nic.mac1609_4 	ReceivedUnicastPackets 	0
scalar RSUScenario.node[10].nic.mac1609_4 	ReceivedBroadcasts 	28942
scalar RSUScenario.node[10].nic.mac1609_4 	SentPackets 	1491
scalar RSUScenario.node[10].nic.mac1609_4 	SNIRLostPackets 	2060
scalar RSUScenario.node[10].nic.mac1609_4 	RXTXLostPackets 	0
scalar RSUScenario.node[10].nic.mac1609_4 	TotalLostPackets 	2060
scalar RSUScenario.node[10].nic.mac1609_4 	DroppedPacketsInMac 	0
scalar RSUScenario.node[10].nic.mac1609_4 	TooLittleTime 	0
scalar RSUScenario.node[10].nic.mac1609_4 	TimesIntoBackoff 	1492
scalar RSUScenario.node[10].nic.mac1609_4 	SlotsBackoff 	2219
scalar RSUScenario.node[10].nic.mac1609_4 	NumInternalContention 	0
scalar RSUScenario.node[10].nic.mac1609_4 	totalBusyTime 	6.998349238793
scalar RSUScenario.node[10].nic.mac1609_4 	throughputMetricMac:last 	173.25575188974
attr source  throughputSignalMac
attr title  "throughputMetricMac, last"
scalar RSUScenario.node[10].nic.mac1609_4 	throughputMetricMac:count 	28942
attr source  throughputSignalMac
attr title  "throughputMetricMac, count"
scalar RSUScenario.node[10].nic.mac1609_4 	throughputMetricMac:sum 	3927643.5878485
attr source  throughputSignalMac
attr title  "throughputMetricMac, sum"
scalar RSUScenario.node[10].nic.mac1609_4 	throughputMetricMac:mean 	135.70740058906
attr source  throughputSignalMac
attr title  "throughputMetricMac, mean"
scalar RSUScenario.node[10].veinsmobility 	startTime 	18.1
scalar RSUScenario.node[10].veinsmobility 	totalTime 	148.9
scalar RSUScenario.node[10].veinsmobility 	stopTime 	167.1
scalar RSUScenario.node[10].veinsmobility 	minSpeed 	0
scalar RSUScenario.node[10].veinsmobility 	maxSpeed 	31.289726866861
scalar RSUScenario.node[10].veinsmobility 	totalDistance 	3270.435441921
scalar RSUScenario.node[10].veinsmobility 	totalCO2Emission 	749.07995441925
scalar RSUScenario.node[16].nic.phy80211p 	busyTime 	0.048477034795768
scalar RSUScenario.node[16].nic.phy80211p 	ncollisions 	838
scalar RSUScenario.node[16].nic.phy80211p 	nnot_decoded_collisons 	0
scalar RSUScenario.node[16].nic.mac1609_4 	throughputMetricMac 	158.97975355907
scalar RSUScenario.node[16].nic.mac1609_4 	throughputMbps 	0.16790924714336
scalar RSUScenario.node[16].nic.mac1609_4 	throughputControlMbps 	0
scalar RSUScenario.node[16].nic.mac1609_4 	receivedFramesLowerMsg 	26748
scalar RSUScenario.node[16].nic.mac1609_4 	receivedBitsLowerPackets 	0
scalar RSUScenario.node[16].nic.mac1609_4 	receivedBitsLoserWsm 	0
scalar RSUScenario.node[16].nic.mac1609_4 	packetsNotForMe 	0
scalar RSUScenario.node[16].nic.mac1609_4 	receivedTotalBits 	28250368
scalar RSUScenario.node[16].nic.mac1609_4 	collisionsPktNonDecoded 	0
scalar RSUScenario.node[16].nic.mac1609_4 	chUtilizationSCH1 	0.000265
scalar RSUScenario.node[16].nic.mac1609_4 	chUtilizationSCH2 	0
scalar RSUScenario.node[16].nic.mac1609_4 	chUtilizationSCH3 	0
scalar RSUScenario.node[16].nic.mac1609_4 	chUtilizationSCH4 	0
scalar RSUScenario.node[16].nic.mac1609_4 	chUtilizationCCH 	0.29745
scalar RSUScenario.node[16].nic.mac1609_4 	chUtilizationHPPS 	0
scalar RSUScenario.node[16].nic.mac1609_4 	chUtilizationCRIT_SOL 	0
scalar RSUScenario.node[16].nic.mac1609_4 	ReceivedUnicastPackets 	0
scalar RSUScenario.node[16].nic.mac1609_4 	ReceivedBroadcasts 	26748
scalar RSUScenario.node[16].nic.mac1609_4 	SentPackets 	1323
scalar RSUScenario.node[16].nic.mac1609_4 	SNIRLostPackets 	1858
scalar RSUScenario.node[16].nic.mac1609_4 	RXTXLostPackets 	269
scalar RSUScenario.node[16].nic.mac1609_4 	TotalLostPackets 	2127
scalar RSUScenario.node[16].nic.mac1609_4 	DroppedPacketsInMac 	0
scalar RSUScenario.node[16].nic.mac1609_4 	TooLittleTime 	0
scalar RSUScenario.node[16].nic.mac1609_4 	TimesIntoBackoff 	2555
scalar RSUScenario.node[16].nic.mac1609_4 	SlotsBackoff 	3805
scalar RSUScenario.node[16].nic.mac1609_4 	NumInternalContention 	0
scalar RSUScenario.node[16].nic.mac1609_4 	totalBusyTime 	6.477819
scalar RSUScenario.node[16].nic.mac1609_4 	throughputMetricMac:last 	158.97975355907
attr source  throughputSignalMac
attr title  "throughputMetricMac, last"
scalar RSUScenario.node[16].nic.mac1609_4 	throughputMetricMac:count 	26748
attr source  throughputSignalMac
attr title  "throughputMetricMac, count"
scalar RSUScenario.node[16].nic.mac1609_4 	throughputMetricMac:sum 	3153826.3888108
attr source  throughputSignalMac
attr title  "throughputMetricMac, sum"
scalar RSUScenario.node[16].nic.mac1609_4 	throughputMetricMac:mean 	117.90886753442
attr source  throughputSignalMac
attr title  "throughputMetricMac, mean"
scalar RSUScenario.node[16].veinsmobility 	startTime 	36.1
scalar RSUScenario.node[16].veinsmobility 	totalTime 	132.1
scalar RSUScenario.node[16].veinsmobility 	stopTime 	168.3
scalar RSUScenario.node[16].veinsmobility 	minSpeed 	0.026315733901467
scalar RSUScenario.node[16].veinsmobility 	maxSpeed 	31.28898306709
scalar RSUScenario.node[16].veinsmobility 	totalDistance 	3268.393455737
scalar RSUScenario.node[16].veinsmobility 	totalCO2Emission 	735.29686687941
scalar RSUScenario.node[18].nic.phy80211p 	busyTime 	0.048533794186962
scalar RSUScenario.node[18].nic.phy80211p 	ncollisions 	820
scalar RSUScenario.node[18].nic.phy80211p 	nnot_decoded_collisons 	0
scalar RSUScenario.node[18].nic.mac1609_4 	throughputMetricMac 	150.38899088234
scalar RSUScenario.node[18].nic.mac1609_4 	throughputMbps 	0.15883722885098
scalar RSUScenario.node[18].nic.mac1609_4 	throughputControlMbps 	0
scalar RSUScenario.node[18].nic.mac1609_4 	receivedFramesLowerMsg 	25468
scalar RSUScenario.node[18].nic.mac1609_4 	receivedBitsLowerPackets 	0
scalar RSUScenario.node[18].nic.mac1609_4 	receivedBitsLoserWsm 	0
scalar RSUScenario.node[18].nic.mac1609_4 	packetsNotForMe 	0
scalar RSUScenario.node[18].nic.mac1609_4 	receivedTotalBits 	26898688
scalar RSUScenario.node[18].nic.mac1609_4 	collisionsPktNonDecoded 	0
scalar RSUScenario.node[18].nic.mac1609_4 	chUtilizationSCH1 	0.000265
scalar RSUScenario.node[18].nic.mac1609_4 	chUtilizationSCH2 	0
scalar RSUScenario.node[18].nic.mac1609_4 	chUtilizationSCH3 	0
scalar RSUScenario.node[18].nic.mac1609_4 	chUtilizationSCH4 	0
scalar RSUScenario.node[18].nic.mac1609_4 	chUtilizationCCH 	0.286425
scalar RSUScenario.node[18].nic.mac1609_4 	chUtilizationHPPS 	0
scalar RSUScenario.node[18].nic.mac1609_4 	chUtilizationCRIT_SOL 	0
scalar RSUScenario.node[18].nic.mac1609_4 	ReceivedUnicastPackets 	0
scalar RSUScenario.node[18].nic.mac1609_4 	ReceivedBroadcasts 	25468
scalar RSUScenario.node[18].nic.mac1609_4 	SentPackets 	1274
scalar RSUScenario.node[18].nic.mac1609_4 	SNIRLostPackets 	2110
scalar RSUScenario.node[18].nic.mac1609_4 	RXTXLostPackets 	1
scalar RSUScenario.node[18].nic.mac1609_4 	TotalLostPackets 	2111
scalar RSUScenario.node[18].nic.mac1609_4 	DroppedPacketsInMac 	0
scalar RSUScenario.node[18].nic.mac1609_4 	TooLittleTime 	0
scalar RSUScenario.node[18].nic.mac1609_4 	TimesIntoBackoff 	1274
scalar RSUScenario.node[18].nic.mac1609_4 	SlotsBackoff 	1884
scalar RSUScenario.node[18].nic.mac1609_4 	NumInternalContention 	0
scalar RSUScenario.node[18].nic.mac1609_4 	totalBusyTime 	6.176042000194
scalar RSUScenario.node[18].nic.mac1609_4 	throughputMetricMac:last 	150.38899088234
attr source  throughputSignalMac
attr title  "throughputMetricMac, last"
scalar RSUScenario.node[18].nic.mac1609_4 	throughputMetricMac:count 	25468
attr source  throughputSignalMac
attr title  "throughputMetricMac, count"
scalar RSUScenario.node[18].nic.mac1609_4 	throughputMetricMac:sum 	2797257.3672653
attr source  throughputSignalMac
attr title  "throughputMetricMac, sum"
scalar RSUScenario.node[18].nic.mac1609_4 	throughputMetricMac:mean 	109.83419849479
attr source  throughputSignalMac
attr title  "throughputMetricMac, mean"
scalar RSUScenario.node[18].veinsmobility 	startTime 	42.1
scalar RSUScenario.node[18].veinsmobility 	totalTime 	127.2
scalar RSUScenario.node[18].veinsmobility 	stopTime 	169.4
scalar RSUScenario.node[18].veinsmobility 	minSpeed 	0.21448099523298
scalar RSUScenario.node[18].veinsmobility 	maxSpeed 	31.289087943535
scalar RSUScenario.node[18].veinsmobility 	totalDistance 	3271.5719268606
scalar RSUScenario.node[18].veinsmobility 	totalCO2Emission 	720.61109734473
scalar RSUScenario.node[21].nic.phy80211p 	busyTime 	0.048579635157545
scalar RSUScenario.node[21].nic.phy80211p 	ncollisions 	309
scalar RSUScenario.node[21].nic.phy80211p 	nnot_decoded_collisons 	0
scalar RSUScenario.node[21].nic.mac1609_4 	throughputMetricMac 	146.78337939225
scalar RSUScenario.node[21].nic.mac1609_4 	throughputMbps 	0.15502934863971
scalar RSUScenario.node[21].nic.mac1609_4 	throughputControlMbps 	0
scalar RSUScenario.node[21].nic.mac1609_4 	receivedFramesLowerMsg 	25195
scalar RSUScenario.node[21].nic.mac1609_4 	receivedBitsLowerPackets 	0
scalar RSUScenario.node[21].nic.mac1609_4 	receivedBitsLoserWsm 	0
scalar RSUScenario.node[21].nic.mac1609_4 	packetsNotForMe 	0
scalar RSUScenario.node[21].nic.mac1609_4 	receivedTotalBits 	26610400
scalar RSUScenario.node[21].nic.mac1609_4 	collisionsPktNonDecoded 	0
scalar RSUScenario.node[21].nic.mac1609_4 	chUtilizationSCH1 	0.000265
scalar RSUScenario.node[21].nic.mac1609_4 	chUtilizationSCH2 	0
scalar RSUScenario.node[21].nic.mac1609_4 	chUtilizationSCH3 	0
scalar RSUScenario.node[21].nic.mac1609_4 	chUtilizationSCH4 	0
scalar RSUScenario.node[21].nic.mac1609_4 	chUtilizationCCH 	0.27135
scalar RSUScenario.node[21].nic.mac1609_4 	chUtilizationHPPS 	0
scalar RSUScenario.node[21].nic.mac1609_4 	chUtilizationCRIT_SOL 	0
scalar RSUScenario.node[21].nic.mac1609_4 	ReceivedUnicastPackets 	0
scalar RSUScenario.node[21].nic.mac1609_4 	ReceivedBroadcasts 	25195
scalar RSUScenario.node[21].nic.mac1609_4 	SentPackets 	1207
scalar RSUScenario.node[21].nic.mac1609_4 	SNIRLostPackets 	956
scalar RSUScenario.node[21].nic.mac1609_4 	RXTXLostPackets 	1
scalar RSUScenario.node[21].nic.mac1609_4 	TotalLostPackets 	957
scalar RSUScenario.node[21].nic.mac1609_4 	DroppedPacketsInMac 	0
scalar RSUScenario.node[21].nic.mac1609_4 	TooLittleTime 	0
scalar RSUScenario.node[21].nic.mac1609_4 	TimesIntoBackoff 	1207
scalar RSUScenario.node[21].nic.mac1609_4 	SlotsBackoff 	1844
scalar RSUScenario.node[21].nic.mac1609_4 	NumInternalContention 	0
scalar RSUScenario.node[21].nic.mac1609_4 	totalBusyTime 	5.985351355414
scalar RSUScenario.node[21].nic.mac1609_4 	throughputMetricMac:last 	146.78337939225
attr source  throughputSignalMac
attr title  "throughputMetricMac, last"
scalar RSUScenario.node[21].nic.mac1609_4 	throughputMetricMac:count 	25195
attr source  throughputSignalMac
attr title  "throughputMetricMac, count"
scalar RSUScenario.node[21].nic.mac1609_4 	throughputMetricMac:sum 	2640669.1837734
attr source  throughputSignalMac
attr title  "throughputMetricMac, sum"
scalar RSUScenario.node[21].nic.mac1609_4 	throughputMetricMac:mean 	104.80925516068
attr source  throughputSignalMac
attr title  "throughputMetricMac, mean"
scalar RSUScenario.node[21].veinsmobility 	startTime 	51.1
scalar RSUScenario.node[21].veinsmobility 	totalTime 	120.5
scalar RSUScenario.node[21].veinsmobility 	stopTime 	171.7
scalar RSUScenario.node[21].veinsmobility 	minSpeed 	0.25206351646339
scalar RSUScenario.node[21].veinsmobility 	maxSpeed 	31.289447163541
scalar RSUScenario.node[21].veinsmobility 	totalDistance 	3276.3033861631
scalar RSUScenario.node[21].veinsmobility 	totalCO2Emission 	717.05454729655
scalar RSUScenario.node[23].nic.phy80211p 	busyTime 	0.050304938067714
scalar RSUScenario.node[23].nic.phy80211p 	ncollisions 	382
scalar RSUScenario.node[23].nic.phy80211p 	nnot_decoded_collisons 	0
scalar RSUScenario.node[23].nic.mac1609_4 	throughputMetricMac 	146.81491311764
scalar RSUScenario.node[23].nic.mac1609_4 	throughputMbps 	0.15506043830262
scalar RSUScenario.node[23].nic.mac1609_4 	throughputControlMbps 	0
scalar RSUScenario.node[23].nic.mac1609_4 	receivedFramesLowerMsg 	26155
scalar RSUScenario.node[23].nic.mac1609_4 	receivedBitsLowerPackets 	0
scalar RSUScenario.node[23].nic.mac1609_4 	receivedBitsLoserWsm 	0
scalar RSUScenario.node[23].nic.mac1609_4 	packetsNotForMe 	0
scalar RSUScenario.node[23].nic.mac1609_4 	receivedTotalBits 	27623936
scalar RSUScenario.node[23].nic.mac1609_4 	collisionsPktNonDecoded 	0
scalar RSUScenario.node[23].nic.mac1609_4 	chUtilizationSCH1 	0.000265
scalar RSUScenario.node[23].nic.mac1609_4 	chUtilizationSCH2 	0
scalar RSUScenario.node[23].nic.mac1609_4 	chUtilizationSCH3 	0
scalar RSUScenario.node[23].nic.mac1609_4 	chUtilizationSCH4 	0
scalar RSUScenario.node[23].nic.mac1609_4 	chUtilizationCCH 	0.272475
scalar RSUScenario.node[23].nic.mac1609_4 	chUtilizationHPPS 	0
scalar RSUScenario.node[23].nic.mac1609_4 	chUtilizationCRIT_SOL 	0
scalar RSUScenario.node[23].nic.mac1609_4 	ReceivedUnicastPackets 	0
scalar RSUScenario.node[23].nic.mac1609_4 	ReceivedBroadcasts 	26155
scalar RSUScenario.node[23].nic.mac1609_4 	SentPackets 	1212
scalar RSUScenario.node[23].nic.mac1609_4 	SNIRLostPackets 	1037
scalar RSUScenario.node[23].nic.mac1609_4 	RXTXLostPackets 	0
scalar RSUScenario.node[23].nic.mac1609_4 	TotalLostPackets 	1037
scalar RSUScenario.node[23].nic.mac1609_4 	DroppedPacketsInMac 	0
scalar RSUScenario.node[23].nic.mac1609_4 	TooLittleTime 	0
scalar RSUScenario.node[23].nic.mac1609_4 	TimesIntoBackoff 	1212
scalar RSUScenario.node[23].nic.mac1609_4 	SlotsBackoff 	1804
scalar RSUScenario.node[23].nic.mac1609_4 	NumInternalContention 	0
scalar RSUScenario.node[23].nic.mac1609_4 	totalBusyTime 	6.217868405263
scalar RSUScenario.node[23].nic.mac1609_4 	throughputMetricMac:last 	146.81491311764
attr source  throughputSignalMac
attr title  "throughputMetricMac, last"
scalar RSUScenario.node[23].nic.mac1609_4 	throughputMetricMac:count 	26155
attr source  throughputSignalMac
attr title  "throughputMetricMac, count"
scalar RSUScenario.node[23].nic.mac1609_4 	throughputMetricMac:sum 	2693488.8125511
attr source  throughputSignalMac
attr title  "throughputMetricMac, sum"
scalar RSUScenario.node[23].nic.mac1609_4 	throughputMetricMac:mean 	102.98179363606
attr source  throughputSignalMac
attr title  "throughputMetricMac, mean"
scalar RSUScenario.node[23].veinsmobility 	startTime 	57.1
scalar RSUScenario.node[23].veinsmobility 	totalTime 	121
scalar RSUScenario.node[23].veinsmobility 	stopTime 	178.2
scalar RSUScenario.node[23].veinsmobility 	minSpeed 	0.25246978590148
scalar RSUScenario.node[23].veinsmobility 	maxSpeed 	31.289629589375
scalar RSUScenario.node[23].veinsmobility 	totalDistance 	3275.5808137093
scalar RSUScenario.node[23].veinsmobility 	totalCO2Emission 	710.5870249408
scalar RSUScenario.node[22].nic.phy80211p 	busyTime 	0.047590148090414
scalar RSUScenario.node[22].nic.phy80211p 	ncollisions 	407
scalar RSUScenario.node[22].nic.phy80211p 	nnot_decoded_collisons 	0
scalar RSUScenario.node[22].nic.mac1609_4 	throughputMetricMac 	144.23951487638
scalar RSUScenario.node[22].nic.mac1609_4 	throughputMbps 	0.15234026750768
scalar RSUScenario.node[22].nic.mac1609_4 	throughputControlMbps 	0
scalar RSUScenario.node[22].nic.mac1609_4 	receivedFramesLowerMsg 	26302
scalar RSUScenario.node[22].nic.mac1609_4 	receivedBitsLowerPackets 	0
scalar RSUScenario.node[22].nic.mac1609_4 	receivedBitsLoserWsm 	0
scalar RSUScenario.node[22].nic.mac1609_4 	packetsNotForMe 	0
scalar RSUScenario.node[22].nic.mac1609_4 	receivedTotalBits 	27779168
scalar RSUScenario.node[22].nic.mac1609_4 	collisionsPktNonDecoded 	0
scalar RSUScenario.node[22].nic.mac1609_4 	chUtilizationSCH1 	0.000265
scalar RSUScenario.node[22].nic.mac1609_4 	chUtilizationSCH2 	0
scalar RSUScenario.node[22].nic.mac1609_4 	chUtilizationSCH3 	0
scalar RSUScenario.node[22].nic.mac1609_4 	chUtilizationSCH4 	0
scalar RSUScenario.node[22].nic.mac1609_4 	chUtilizationCCH 	0.288675
scalar RSUScenario.node[22].nic.mac1609_4 	chUtilizationHPPS 	0
scalar RSUScenario.node[22].nic.mac1609_4 	chUtilizationCRIT_SOL 	0
scalar RSUScenario.node[22].nic.mac1609_4 	ReceivedUnicastPackets 	0
scalar RSUScenario.node[22].nic.mac1609_4 	ReceivedBroadcasts 	26302
scalar RSUScenario.node[22].nic.mac1609_4 	SentPackets 	1284
scalar RSUScenario.node[22].nic.mac1609_4 	SNIRLostPackets 	952
scalar RSUScenario.node[22].nic.mac1609_4 	RXTXLostPackets 	0
scalar RSUScenario.node[22].nic.mac1609_4 	TotalLostPackets 	952
scalar RSUScenario.node[22].nic.mac1609_4 	DroppedPacketsInMac 	0
scalar RSUScenario.node[22].nic.mac1609_4 	TooLittleTime 	0
scalar RSUScenario.node[22].nic.mac1609_4 	TimesIntoBackoff 	2260
scalar RSUScenario.node[22].nic.mac1609_4 	SlotsBackoff 	3445
scalar RSUScenario.node[22].nic.mac1609_4 	NumInternalContention 	0
scalar RSUScenario.node[22].nic.mac1609_4 	totalBusyTime 	6.27259644174
scalar RSUScenario.node[22].nic.mac1609_4 	throughputMetricMac:last 	144.23951487638
attr source  throughputSignalMac
attr title  "throughputMetricMac, last"
scalar RSUScenario.node[22].nic.mac1609_4 	throughputMetricMac:count 	26302
attr source  throughputSignalMac
attr title  "throughputMetricMac, count"
scalar RSUScenario.node[22].nic.mac1609_4 	throughputMetricMac:sum 	2716697.702232
attr source  throughputSignalMac
attr title  "throughputMetricMac, sum"
scalar RSUScenario.node[22].nic.mac1609_4 	throughputMetricMac:mean 	103.28863593004
attr source  throughputSignalMac
attr title  "throughputMetricMac, mean"
scalar RSUScenario.node[22].veinsmobility 	startTime 	54.1
scalar RSUScenario.node[22].veinsmobility 	totalTime 	128.2
scalar RSUScenario.node[22].veinsmobility 	stopTime 	182.4
scalar RSUScenario.node[22].veinsmobility 	minSpeed 	0.0023959443370883
scalar RSUScenario.node[22].veinsmobility 	maxSpeed 	31.289605613833
scalar RSUScenario.node[22].veinsmobility 	totalDistance 	3275.1635933829
scalar RSUScenario.node[22].veinsmobility 	totalCO2Emission 	724.05920196728
scalar RSUScenario.node[25].nic.phy80211p 	busyTime 	0.048231742361684
scalar RSUScenario.node[25].nic.phy80211p 	ncollisions 	603
scalar RSUScenario.node[25].nic.phy80211p 	nnot_decoded_collisons 	0
scalar RSUScenario.node[25].nic.mac1609_4 	throughputMetricMac 	133.66858423542
scalar RSUScenario.node[25].nic.mac1609_4 	throughputMbps 	0.14117835301499
scalar RSUScenario.node[25].nic.mac1609_4 	throughputControlMbps 	0
scalar RSUScenario.node[25].nic.mac1609_4 	receivedFramesLowerMsg 	24615
scalar RSUScenario.node[25].nic.mac1609_4 	receivedBitsLowerPackets 	0
scalar RSUScenario.node[25].nic.mac1609_4 	receivedBitsLoserWsm 	0
scalar RSUScenario.node[25].nic.mac1609_4 	packetsNotForMe 	0
scalar RSUScenario.node[25].nic.mac1609_4 	receivedTotalBits 	25997920
scalar RSUScenario.node[25].nic.mac1609_4 	collisionsPktNonDecoded 	0
scalar RSUScenario.node[25].nic.mac1609_4 	chUtilizationSCH1 	0.000265
scalar RSUScenario.node[25].nic.mac1609_4 	chUtilizationSCH2 	0
scalar RSUScenario.node[25].nic.mac1609_4 	chUtilizationSCH3 	0
scalar RSUScenario.node[25].nic.mac1609_4 	chUtilizationSCH4 	0
scalar RSUScenario.node[25].nic.mac1609_4 	chUtilizationCCH 	0.272475
scalar RSUScenario.node[25].nic.mac1609_4 	chUtilizationHPPS 	0
scalar RSUScenario.node[25].nic.mac1609_4 	chUtilizationCRIT_SOL 	0
scalar RSUScenario.node[25].nic.mac1609_4 	ReceivedUnicastPackets 	0
scalar RSUScenario.node[25].nic.mac1609_4 	ReceivedBroadcasts 	24615
scalar RSUScenario.node[25].nic.mac1609_4 	SentPackets 	1212
scalar RSUScenario.node[25].nic.mac1609_4 	SNIRLostPackets 	1456
scalar RSUScenario.node[25].nic.mac1609_4 	RXTXLostPackets 	0
scalar RSUScenario.node[25].nic.mac1609_4 	TotalLostPackets 	1456
scalar RSUScenario.node[25].nic.mac1609_4 	DroppedPacketsInMac 	0
scalar RSUScenario.node[25].nic.mac1609_4 	TooLittleTime 	0
scalar RSUScenario.node[25].nic.mac1609_4 	TimesIntoBackoff 	1213
scalar RSUScenario.node[25].nic.mac1609_4 	SlotsBackoff 	1894
scalar RSUScenario.node[25].nic.mac1609_4 	NumInternalContention 	0
scalar RSUScenario.node[25].nic.mac1609_4 	totalBusyTime 	5.922452226245
scalar RSUScenario.node[25].nic.mac1609_4 	throughputMetricMac:last 	133.66858423542
attr source  throughputSignalMac
attr title  "throughputMetricMac, last"
scalar RSUScenario.node[25].nic.mac1609_4 	throughputMetricMac:count 	24615
attr source  throughputSignalMac
attr title  "throughputMetricMac, count"
scalar RSUScenario.node[25].nic.mac1609_4 	throughputMetricMac:sum 	2300621.5993541
attr source  throughputSignalMac
attr title  "throughputMetricMac, sum"
scalar RSUScenario.node[25].nic.mac1609_4 	throughputMetricMac:mean 	93.464212852087
attr source  throughputSignalMac
attr title  "throughputMetricMac, mean"
scalar RSUScenario.node[25].veinsmobility 	startTime 	63.1
scalar RSUScenario.node[25].veinsmobility 	totalTime 	121
scalar RSUScenario.node[25].veinsmobility 	stopTime 	184.2
scalar RSUScenario.node[25].veinsmobility 	minSpeed 	0.25122554582194
scalar RSUScenario.node[25].veinsmobility 	maxSpeed 	31.289856927963
scalar RSUScenario.node[25].veinsmobility 	totalDistance 	3275.1333045944
scalar RSUScenario.node[25].veinsmobility 	totalCO2Emission 	709.78675986273
[...]
scalar RSUScenario.node[76].nic.mac1609_4 	TooLittleTime 	0
scalar RSUScenario.node[76].nic.mac1609_4 	TimesIntoBackoff 	184
scalar RSUScenario.node[76].nic.mac1609_4 	SlotsBackoff 	274
scalar RSUScenario.node[76].nic.mac1609_4 	NumInternalContention 	0
scalar RSUScenario.node[76].nic.mac1609_4 	totalBusyTime 	0.923648000142
scalar RSUScenario.node[76].nic.mac1609_4 	throughputMetricMac:last 	16.368887350455
attr source  throughputSignalMac
attr title  "throughputMetricMac, last"
scalar RSUScenario.node[76].nic.mac1609_4 	throughputMetricMac:count 	3926
attr source  throughputSignalMac
attr title  "throughputMetricMac, count"
scalar RSUScenario.node[76].nic.mac1609_4 	throughputMetricMac:sum 	33013.042466164
attr source  throughputSignalMac
attr title  "throughputMetricMac, sum"
scalar RSUScenario.node[76].nic.mac1609_4 	throughputMetricMac:mean 	8.4088238579123
attr source  throughputSignalMac
attr title  "throughputMetricMac, mean"
scalar RSUScenario.node[76].veinsmobility 	startTime 	221.6
scalar RSUScenario.node[76].veinsmobility 	totalTime 	18.2
scalar RSUScenario.node[76].veinsmobility 	stopTime 	239.84709739595
scalar RSUScenario.node[76].veinsmobility 	minSpeed 	0.0086277452019241
scalar RSUScenario.node[76].veinsmobility 	maxSpeed 	5.6643087440757
scalar RSUScenario.node[76].veinsmobility 	totalDistance 	41.27817150502
scalar RSUScenario.node[76].veinsmobility 	totalCO2Emission 	26.389425564175
scalar RSUScenario.node[77].nic.phy80211p 	busyTime 	0.048632614869752
scalar RSUScenario.node[77].nic.phy80211p 	ncollisions 	22
scalar RSUScenario.node[77].nic.phy80211p 	nnot_decoded_collisons 	0
scalar RSUScenario.node[77].nic.mac1609_4 	throughputMetricMac 	13.788056669075
scalar RSUScenario.node[77].nic.mac1609_4 	throughputMbps 	0.014567659326533
scalar RSUScenario.node[77].nic.mac1609_4 	throughputControlMbps 	0
scalar RSUScenario.node[77].nic.mac1609_4 	receivedFramesLowerMsg 	3307
scalar RSUScenario.node[77].nic.mac1609_4 	receivedBitsLowerPackets 	0
scalar RSUScenario.node[77].nic.mac1609_4 	receivedBitsLoserWsm 	0
scalar RSUScenario.node[77].nic.mac1609_4 	packetsNotForMe 	0
scalar RSUScenario.node[77].nic.mac1609_4 	receivedTotalBits 	3493984
scalar RSUScenario.node[77].nic.mac1609_4 	collisionsPktNonDecoded 	0
scalar RSUScenario.node[77].nic.mac1609_4 	chUtilizationSCH1 	0.000265
scalar RSUScenario.node[77].nic.mac1609_4 	chUtilizationSCH2 	0
scalar RSUScenario.node[77].nic.mac1609_4 	chUtilizationSCH3 	0
scalar RSUScenario.node[77].nic.mac1609_4 	chUtilizationSCH4 	0
scalar RSUScenario.node[77].nic.mac1609_4 	chUtilizationCCH 	0.0351
scalar RSUScenario.node[77].nic.mac1609_4 	chUtilizationHPPS 	0
scalar RSUScenario.node[77].nic.mac1609_4 	chUtilizationCRIT_SOL 	0
scalar RSUScenario.node[77].nic.mac1609_4 	ReceivedUnicastPackets 	0
scalar RSUScenario.node[77].nic.mac1609_4 	ReceivedBroadcasts 	3307
scalar RSUScenario.node[77].nic.mac1609_4 	SentPackets 	157
scalar RSUScenario.node[77].nic.mac1609_4 	SNIRLostPackets 	67
scalar RSUScenario.node[77].nic.mac1609_4 	RXTXLostPackets 	0
scalar RSUScenario.node[77].nic.mac1609_4 	TotalLostPackets 	67
scalar RSUScenario.node[77].nic.mac1609_4 	DroppedPacketsInMac 	0
scalar RSUScenario.node[77].nic.mac1609_4 	TooLittleTime 	0
scalar RSUScenario.node[77].nic.mac1609_4 	TimesIntoBackoff 	157
scalar RSUScenario.node[77].nic.mac1609_4 	SlotsBackoff 	261
scalar RSUScenario.node[77].nic.mac1609_4 	NumInternalContention 	0
scalar RSUScenario.node[77].nic.mac1609_4 	totalBusyTime 	0.781381013982
scalar RSUScenario.node[77].nic.mac1609_4 	throughputMetricMac:last 	13.788056669075
attr source  throughputSignalMac
attr title  "throughputMetricMac, last"
scalar RSUScenario.node[77].nic.mac1609_4 	throughputMetricMac:count 	3307
attr source  throughputSignalMac
attr title  "throughputMetricMac, count"
scalar RSUScenario.node[77].nic.mac1609_4 	throughputMetricMac:sum 	23335.853426624
attr source  throughputSignalMac
attr title  "throughputMetricMac, sum"
scalar RSUScenario.node[77].nic.mac1609_4 	throughputMetricMac:mean 	7.0565023969229
attr source  throughputSignalMac
attr title  "throughputMetricMac, mean"
scalar RSUScenario.node[77].veinsmobility 	startTime 	224.3
scalar RSUScenario.node[77].veinsmobility 	totalTime 	15.5
scalar RSUScenario.node[77].veinsmobility 	stopTime 	239.84709739595
scalar RSUScenario.node[77].veinsmobility 	minSpeed 	0.2475888932154
scalar RSUScenario.node[77].veinsmobility 	maxSpeed 	10.778421637534
scalar RSUScenario.node[77].veinsmobility 	totalDistance 	64.378962759112
scalar RSUScenario.node[77].veinsmobility 	totalCO2Emission 	36.546282868525
scalar RSUScenario.node[78].nic.phy80211p 	busyTime 	0.047962942089306
scalar RSUScenario.node[78].nic.phy80211p 	ncollisions 	0
scalar RSUScenario.node[78].nic.phy80211p 	nnot_decoded_collisons 	0
scalar RSUScenario.node[78].nic.mac1609_4 	throughputMetricMac 	11.153024365141
scalar RSUScenario.node[78].nic.mac1609_4 	throughputMbps 	0.011777593729589
scalar RSUScenario.node[78].nic.mac1609_4 	throughputControlMbps 	0
scalar RSUScenario.node[78].nic.mac1609_4 	receivedFramesLowerMsg 	2675
scalar RSUScenario.node[78].nic.mac1609_4 	receivedBitsLowerPackets 	0
scalar RSUScenario.node[78].nic.mac1609_4 	receivedBitsLoserWsm 	0
scalar RSUScenario.node[78].nic.mac1609_4 	packetsNotForMe 	0
scalar RSUScenario.node[78].nic.mac1609_4 	receivedTotalBits 	2824800
scalar RSUScenario.node[78].nic.mac1609_4 	collisionsPktNonDecoded 	0
scalar RSUScenario.node[78].nic.mac1609_4 	chUtilizationSCH1 	0
scalar RSUScenario.node[78].nic.mac1609_4 	chUtilizationSCH2 	0
scalar RSUScenario.node[78].nic.mac1609_4 	chUtilizationSCH3 	0
scalar RSUScenario.node[78].nic.mac1609_4 	chUtilizationSCH4 	0
scalar RSUScenario.node[78].nic.mac1609_4 	chUtilizationCCH 	0.028575
scalar RSUScenario.node[78].nic.mac1609_4 	chUtilizationHPPS 	0
scalar RSUScenario.node[78].nic.mac1609_4 	chUtilizationCRIT_SOL 	0
scalar RSUScenario.node[78].nic.mac1609_4 	ReceivedUnicastPackets 	0
scalar RSUScenario.node[78].nic.mac1609_4 	ReceivedBroadcasts 	2675
scalar RSUScenario.node[78].nic.mac1609_4 	SentPackets 	127
scalar RSUScenario.node[78].nic.mac1609_4 	SNIRLostPackets 	33
scalar RSUScenario.node[78].nic.mac1609_4 	RXTXLostPackets 	0
scalar RSUScenario.node[78].nic.mac1609_4 	TotalLostPackets 	33
scalar RSUScenario.node[78].nic.mac1609_4 	DroppedPacketsInMac 	0
scalar RSUScenario.node[78].nic.mac1609_4 	TooLittleTime 	0
scalar RSUScenario.node[78].nic.mac1609_4 	TimesIntoBackoff 	127
scalar RSUScenario.node[78].nic.mac1609_4 	SlotsBackoff 	193
scalar RSUScenario.node[78].nic.mac1609_4 	NumInternalContention 	0
scalar RSUScenario.node[78].nic.mac1609_4 	totalBusyTime 	0.627775
scalar RSUScenario.node[78].nic.mac1609_4 	throughputMetricMac:last 	11.153024365141
attr source  throughputSignalMac
attr title  "throughputMetricMac, last"
scalar RSUScenario.node[78].nic.mac1609_4 	throughputMetricMac:count 	2675
attr source  throughputSignalMac
attr title  "throughputMetricMac, count"
scalar RSUScenario.node[78].nic.mac1609_4 	throughputMetricMac:sum 	15203.570344332
attr source  throughputSignalMac
attr title  "throughputMetricMac, sum"
scalar RSUScenario.node[78].nic.mac1609_4 	throughputMetricMac:mean 	5.6835776988157
attr source  throughputSignalMac
attr title  "throughputMetricMac, mean"
scalar RSUScenario.node[78].veinsmobility 	startTime 	227.2
scalar RSUScenario.node[78].veinsmobility 	totalTime 	12.6
scalar RSUScenario.node[78].veinsmobility 	stopTime 	239.84709739595
scalar RSUScenario.node[78].veinsmobility 	minSpeed 	0.25245971248951
scalar RSUScenario.node[78].veinsmobility 	maxSpeed 	4.8864048929936
scalar RSUScenario.node[78].veinsmobility 	totalDistance 	33.191178671155
scalar RSUScenario.node[78].veinsmobility 	totalCO2Emission 	18.480997450986
scalar RSUScenario.node[79].nic.phy80211p 	busyTime 	0.046869397049886
scalar RSUScenario.node[79].nic.phy80211p 	ncollisions 	0
scalar RSUScenario.node[79].nic.phy80211p 	nnot_decoded_collisons 	0
scalar RSUScenario.node[79].nic.mac1609_4 	throughputMetricMac 	7.7966936673819
scalar RSUScenario.node[79].nic.mac1609_4 	throughputMbps 	0.008233308512755
scalar RSUScenario.node[79].nic.mac1609_4 	throughputControlMbps 	0
scalar RSUScenario.node[79].nic.mac1609_4 	receivedFramesLowerMsg 	1870
scalar RSUScenario.node[79].nic.mac1609_4 	receivedBitsLowerPackets 	0
scalar RSUScenario.node[79].nic.mac1609_4 	receivedBitsLoserWsm 	0
scalar RSUScenario.node[79].nic.mac1609_4 	packetsNotForMe 	0
scalar RSUScenario.node[79].nic.mac1609_4 	receivedTotalBits 	1974720
scalar RSUScenario.node[79].nic.mac1609_4 	collisionsPktNonDecoded 	0
scalar RSUScenario.node[79].nic.mac1609_4 	chUtilizationSCH1 	0
scalar RSUScenario.node[79].nic.mac1609_4 	chUtilizationSCH2 	0
scalar RSUScenario.node[79].nic.mac1609_4 	chUtilizationSCH3 	0
scalar RSUScenario.node[79].nic.mac1609_4 	chUtilizationSCH4 	0
scalar RSUScenario.node[79].nic.mac1609_4 	chUtilizationCCH 	0.020475
scalar RSUScenario.node[79].nic.mac1609_4 	chUtilizationHPPS 	0
scalar RSUScenario.node[79].nic.mac1609_4 	chUtilizationCRIT_SOL 	0
scalar RSUScenario.node[79].nic.mac1609_4 	ReceivedUnicastPackets 	0
scalar RSUScenario.node[79].nic.mac1609_4 	ReceivedBroadcasts 	1870
scalar RSUScenario.node[79].nic.mac1609_4 	SentPackets 	91
scalar RSUScenario.node[79].nic.mac1609_4 	SNIRLostPackets 	23
scalar RSUScenario.node[79].nic.mac1609_4 	RXTXLostPackets 	0
scalar RSUScenario.node[79].nic.mac1609_4 	TotalLostPackets 	23
scalar RSUScenario.node[79].nic.mac1609_4 	DroppedPacketsInMac 	0
scalar RSUScenario.node[79].nic.mac1609_4 	TooLittleTime 	0
scalar RSUScenario.node[79].nic.mac1609_4 	TimesIntoBackoff 	91
scalar RSUScenario.node[79].nic.mac1609_4 	SlotsBackoff 	141
scalar RSUScenario.node[79].nic.mac1609_4 	NumInternalContention 	0
scalar RSUScenario.node[79].nic.mac1609_4 	totalBusyTime 	0.439355
scalar RSUScenario.node[79].nic.mac1609_4 	throughputMetricMac:last 	7.7966936673819
attr source  throughputSignalMac
attr title  "throughputMetricMac, last"
scalar RSUScenario.node[79].nic.mac1609_4 	throughputMetricMac:count 	1870
attr source  throughputSignalMac
attr title  "throughputMetricMac, count"
scalar RSUScenario.node[79].nic.mac1609_4 	throughputMetricMac:sum 	7390.7840065885
attr source  throughputSignalMac
attr title  "throughputMetricMac, sum"
scalar RSUScenario.node[79].nic.mac1609_4 	throughputMetricMac:mean 	3.9522909126142
attr source  throughputSignalMac
attr title  "throughputMetricMac, mean"
scalar RSUScenario.node[79].veinsmobility 	startTime 	230.8
scalar RSUScenario.node[79].veinsmobility 	totalTime 	9
scalar RSUScenario.node[79].veinsmobility 	stopTime 	239.84709739595
scalar RSUScenario.node[79].veinsmobility 	minSpeed 	0.24851860701735
scalar RSUScenario.node[79].veinsmobility 	maxSpeed 	4.1249603126879
scalar RSUScenario.node[79].veinsmobility 	totalDistance 	24.340005404643
scalar RSUScenario.node[79].veinsmobility 	totalCO2Emission 	12.710706839308
scalar RSUScenario.node[80].nic.phy80211p 	busyTime 	0.045198519900284
scalar RSUScenario.node[80].nic.phy80211p 	ncollisions 	0
scalar RSUScenario.node[80].nic.phy80211p 	nnot_decoded_collisons 	0
scalar RSUScenario.node[80].nic.mac1609_4 	throughputMetricMac 	4.9323468488081
scalar RSUScenario.node[80].nic.mac1609_4 	throughputMbps 	0.0052085582723411
scalar RSUScenario.node[80].nic.mac1609_4 	throughputControlMbps 	0
scalar RSUScenario.node[80].nic.mac1609_4 	receivedFramesLowerMsg 	1183
scalar RSUScenario.node[80].nic.mac1609_4 	receivedBitsLowerPackets 	0
scalar RSUScenario.node[80].nic.mac1609_4 	receivedBitsLoserWsm 	0
scalar RSUScenario.node[80].nic.mac1609_4 	packetsNotForMe 	0
scalar RSUScenario.node[80].nic.mac1609_4 	receivedTotalBits 	1249248
scalar RSUScenario.node[80].nic.mac1609_4 	collisionsPktNonDecoded 	0
scalar RSUScenario.node[80].nic.mac1609_4 	chUtilizationSCH1 	0
scalar RSUScenario.node[80].nic.mac1609_4 	chUtilizationSCH2 	0
scalar RSUScenario.node[80].nic.mac1609_4 	chUtilizationSCH3 	0
scalar RSUScenario.node[80].nic.mac1609_4 	chUtilizationSCH4 	0
scalar RSUScenario.node[80].nic.mac1609_4 	chUtilizationCCH 	0.0135
scalar RSUScenario.node[80].nic.mac1609_4 	chUtilizationHPPS 	0
scalar RSUScenario.node[80].nic.mac1609_4 	chUtilizationCRIT_SOL 	0
scalar RSUScenario.node[80].nic.mac1609_4 	ReceivedUnicastPackets 	0
scalar RSUScenario.node[80].nic.mac1609_4 	ReceivedBroadcasts 	1183
scalar RSUScenario.node[80].nic.mac1609_4 	SentPackets 	60
scalar RSUScenario.node[80].nic.mac1609_4 	SNIRLostPackets 	17
scalar RSUScenario.node[80].nic.mac1609_4 	RXTXLostPackets 	0
scalar RSUScenario.node[80].nic.mac1609_4 	TotalLostPackets 	17
scalar RSUScenario.node[80].nic.mac1609_4 	DroppedPacketsInMac 	0
scalar RSUScenario.node[80].nic.mac1609_4 	TooLittleTime 	0
scalar RSUScenario.node[80].nic.mac1609_4 	TimesIntoBackoff 	60
scalar RSUScenario.node[80].nic.mac1609_4 	SlotsBackoff 	94
scalar RSUScenario.node[80].nic.mac1609_4 	NumInternalContention 	0
scalar RSUScenario.node[80].nic.mac1609_4 	totalBusyTime 	0.278492
scalar RSUScenario.node[80].nic.mac1609_4 	throughputMetricMac:last 	4.9323468488081
attr source  throughputSignalMac
attr title  "throughputMetricMac, last"
scalar RSUScenario.node[80].nic.mac1609_4 	throughputMetricMac:count 	1183
attr source  throughputSignalMac
attr title  "throughputMetricMac, count"
scalar RSUScenario.node[80].nic.mac1609_4 	throughputMetricMac:sum 	2944.502222562
attr source  throughputSignalMac
attr title  "throughputMetricMac, sum"
scalar RSUScenario.node[80].nic.mac1609_4 	throughputMetricMac:mean 	2.4890128677616
attr source  throughputSignalMac
attr title  "throughputMetricMac, mean"
scalar RSUScenario.node[80].veinsmobility 	startTime 	233.9
scalar RSUScenario.node[80].veinsmobility 	totalTime 	5.9
scalar RSUScenario.node[80].veinsmobility 	stopTime 	239.84709739595
scalar RSUScenario.node[80].veinsmobility 	minSpeed 	0.2577838596683
scalar RSUScenario.node[80].veinsmobility 	maxSpeed 	3.4470769032314
scalar RSUScenario.node[80].veinsmobility 	totalDistance 	14.656828465582
scalar RSUScenario.node[80].veinsmobility 	totalCO2Emission 	8.1980855774527
scalar RSUScenario.node[81].nic.phy80211p 	busyTime 	0.04561071314735
scalar RSUScenario.node[81].nic.phy80211p 	ncollisions 	0
scalar RSUScenario.node[81].nic.phy80211p 	nnot_decoded_collisons 	0
scalar RSUScenario.node[81].nic.mac1609_4 	throughputMetricMac 	2.2139274525464
scalar RSUScenario.node[81].nic.mac1609_4 	throughputMbps 	0.002337907389889
scalar RSUScenario.node[81].nic.mac1609_4 	throughputControlMbps 	0
scalar RSUScenario.node[81].nic.mac1609_4 	receivedFramesLowerMsg 	531
scalar RSUScenario.node[81].nic.mac1609_4 	receivedBitsLowerPackets 	0
scalar RSUScenario.node[81].nic.mac1609_4 	receivedBitsLoserWsm 	0
scalar RSUScenario.node[81].nic.mac1609_4 	packetsNotForMe 	0
scalar RSUScenario.node[81].nic.mac1609_4 	receivedTotalBits 	560736
scalar RSUScenario.node[81].nic.mac1609_4 	collisionsPktNonDecoded 	0
scalar RSUScenario.node[81].nic.mac1609_4 	chUtilizationSCH1 	0
scalar RSUScenario.node[81].nic.mac1609_4 	chUtilizationSCH2 	0
scalar RSUScenario.node[81].nic.mac1609_4 	chUtilizationSCH3 	0
scalar RSUScenario.node[81].nic.mac1609_4 	chUtilizationSCH4 	0
scalar RSUScenario.node[81].nic.mac1609_4 	chUtilizationCCH 	0.00585
scalar RSUScenario.node[81].nic.mac1609_4 	chUtilizationHPPS 	0
scalar RSUScenario.node[81].nic.mac1609_4 	chUtilizationCRIT_SOL 	0
scalar RSUScenario.node[81].nic.mac1609_4 	ReceivedUnicastPackets 	0
scalar RSUScenario.node[81].nic.mac1609_4 	ReceivedBroadcasts 	531
scalar RSUScenario.node[81].nic.mac1609_4 	SentPackets 	26
scalar RSUScenario.node[81].nic.mac1609_4 	SNIRLostPackets 	8
scalar RSUScenario.node[81].nic.mac1609_4 	RXTXLostPackets 	0
scalar RSUScenario.node[81].nic.mac1609_4 	TotalLostPackets 	8
scalar RSUScenario.node[81].nic.mac1609_4 	DroppedPacketsInMac 	0
scalar RSUScenario.node[81].nic.mac1609_4 	TooLittleTime 	0
scalar RSUScenario.node[81].nic.mac1609_4 	TimesIntoBackoff 	26
scalar RSUScenario.node[81].nic.mac1609_4 	SlotsBackoff 	34
scalar RSUScenario.node[81].nic.mac1609_4 	NumInternalContention 	0
scalar RSUScenario.node[81].nic.mac1609_4 	totalBusyTime 	0.124794
scalar RSUScenario.node[81].nic.mac1609_4 	throughputMetricMac:last 	2.2139274525464
attr source  throughputSignalMac
attr title  "throughputMetricMac, last"
scalar RSUScenario.node[81].nic.mac1609_4 	throughputMetricMac:count 	531
attr source  throughputSignalMac
attr title  "throughputMetricMac, count"
scalar RSUScenario.node[81].nic.mac1609_4 	throughputMetricMac:sum 	591.04401660382
attr source  throughputSignalMac
attr title  "throughputMetricMac, sum"
scalar RSUScenario.node[81].nic.mac1609_4 	throughputMetricMac:mean 	1.113077244075
attr source  throughputSignalMac
attr title  "throughputMetricMac, mean"
scalar RSUScenario.node[81].veinsmobility 	startTime 	237.2
scalar RSUScenario.node[81].veinsmobility 	totalTime 	2.6
scalar RSUScenario.node[81].veinsmobility 	stopTime 	239.84709739595
scalar RSUScenario.node[81].veinsmobility 	minSpeed 	0.2510356924762
scalar RSUScenario.node[81].veinsmobility 	maxSpeed 	2.3674184080699
scalar RSUScenario.node[81].veinsmobility 	totalDistance 	4.9167313020693
scalar RSUScenario.node[81].veinsmobility 	totalCO2Emission 	3.6252174895465
scalar RSUScenario.rsu[0].nic.phy80211p 	busyTime 	0
scalar RSUScenario.rsu[0].nic.phy80211p 	ncollisions 	0
scalar RSUScenario.rsu[0].nic.phy80211p 	nnot_decoded_collisons 	0
scalar RSUScenario.rsu[0].nic.mac1609_4 	ReceivedUnicastPackets 	0
scalar RSUScenario.rsu[0].nic.mac1609_4 	ReceivedBroadcasts 	0
scalar RSUScenario.rsu[0].nic.mac1609_4 	SentPackets 	0
scalar RSUScenario.rsu[0].nic.mac1609_4 	SNIRLostPackets 	0
scalar RSUScenario.rsu[0].nic.mac1609_4 	RXTXLostPackets 	0
scalar RSUScenario.rsu[0].nic.mac1609_4 	TotalLostPackets 	0
scalar RSUScenario.rsu[0].nic.mac1609_4 	DroppedPacketsInMac 	0
scalar RSUScenario.rsu[0].nic.mac1609_4 	TooLittleTime 	0
scalar RSUScenario.rsu[0].nic.mac1609_4 	TimesIntoBackoff 	0
scalar RSUScenario.rsu[0].nic.mac1609_4 	SlotsBackoff 	0
scalar RSUScenario.rsu[0].nic.mac1609_4 	NumInternalContention 	0
scalar RSUScenario.rsu[0].nic.mac1609_4 	totalBusyTime 	0
scalar RSUScenario.metricsApplication.metrics 	packetsDeliveredToMetrics 	240
scalar RSUScenario.metricsApplication.metrics 	throughputMetric 	1.0041841004184
scalar RSUScenario.metricsApplication.metrics 	throughputMetric:last 	1.0041841004184
attr source  throughputSignal
attr title  "throughputMetric, last"
scalar RSUScenario.metricsApplication.metrics 	throughputMetric:count 	240
attr source  throughputSignal
attr title  "throughputMetric, count"
scalar RSUScenario.metricsApplication.metrics 	throughputMetric:sum 	245.05576980815
attr source  throughputSignal
attr title  "throughputMetric, sum"
scalar RSUScenario.metricsApplication.metrics 	throughputMetric:mean 	1.021065707534
attr source  throughputSignal
attr title  "throughputMetric, mean"
scalar RSUScenario.metricsApplication.nic.phy80211p 	busyTime 	0
scalar RSUScenario.metricsApplication.nic.phy80211p 	ncollisions 	0
scalar RSUScenario.metricsApplication.nic.phy80211p 	nnot_decoded_collisons 	0
scalar RSUScenario.metricsApplication.nic.mac1609_4 	ReceivedUnicastPackets 	0
scalar RSUScenario.metricsApplication.nic.mac1609_4 	ReceivedBroadcasts 	0
scalar RSUScenario.metricsApplication.nic.mac1609_4 	SentPackets 	0
scalar RSUScenario.metricsApplication.nic.mac1609_4 	SNIRLostPackets 	0
scalar RSUScenario.metricsApplication.nic.mac1609_4 	RXTXLostPackets 	0
scalar RSUScenario.metricsApplication.nic.mac1609_4 	TotalLostPackets 	0
scalar RSUScenario.metricsApplication.nic.mac1609_4 	DroppedPacketsInMac 	0
scalar RSUScenario.metricsApplication.nic.mac1609_4 	TooLittleTime 	0
scalar RSUScenario.metricsApplication.nic.mac1609_4 	TimesIntoBackoff 	0
scalar RSUScenario.metricsApplication.nic.mac1609_4 	SlotsBackoff 	0
scalar RSUScenario.metricsApplication.nic.mac1609_4 	NumInternalContention 	0
scalar RSUScenario.metricsApplication.nic.mac1609_4 	totalBusyTime 	0
