version 2
run SingleCH_Safety_B_100Bytes_Q_2-0-20171004-14:03:49-15993
attr configname SingleCH_Safety_B_100Bytes_Q_2
attr datetime 20171004-14:03:49
attr experiment SingleCH_Safety_B_100Bytes_Q_2
attr inifile omnetpp.ini
attr iterationvars $0=1
attr iterationvars2 "$0=1, $repetition=0"
attr measurement $0=1
attr network RSUScenario
attr processid 15993
attr repetition 0
attr replication #0
attr resultdir results
attr runnumber 0
attr seedset 0
param **.coreDebug false
param **.debug true
param *.**.nic.mac1609_4.bitrate 6Mbps
param *.**.nic.mac1609_4.queueSize ${1,2,5}
param *.**.nic.mac1609_4.txPower 100mW
param *.**.nic.mac1609_4.useServiceChannel false
param *.**.nic.phy80211p.analogueModels "xmldoc(\"config.xml\")"
param *.**.nic.phy80211p.decider "xmldoc(\"config.xml\")"
param *.**.nic.phy80211p.decider.collectCollisionStats true
param *.**.nic.phy80211p.maxTXPower 100mW
param *.**.nic.phy80211p.sensitivity -89dBm
param *.**.nic.phy80211p.thermalNoise -110dBm
param *.**.nic.phy80211p.usePropagationDelay true
param *.**.nic.phy80211p.useThermalNoise true
param *.annotations.draw false
param *.connectionManager.alpha 2.0
param *.connectionManager.carrierFrequency "5.890e9 Hz"
param *.connectionManager.pMax 100mW
param *.connectionManager.sat -89dBm
param *.connectionManager.sendDirect true
param *.manager.autoShutdown true
param *.manager.host "\"localhost\""
param *.manager.launchConfig "xmldoc(\"erlangen.launchd.xml\")"
param *.manager.margin 25
param *.manager.moduleDisplayString "\"\""
param *.manager.moduleName "\"node\""
param *.manager.moduleType "\"vanets.src.CarWithMetrics\""
param *.manager.numVehicles 5
param *.manager.port 9999
param *.manager.updateInterval 0.1s
param *.metricsApplicaiton[*].appl.sendBeacons false
param *.metricsApplication.appl.beaconInterval 1s
param *.metricsApplication.appl.beaconLengthBits 800bit
param *.metricsApplication.appl.beaconPriority 3
param *.metricsApplication.appl.dataOnSch false
param *.metricsApplication.appl.dataPriority 2
param *.metricsApplication.appl.debug false
param *.metricsApplication.appl.headerLength "256 bit"
param *.metricsApplication.appl.maxOffset 0.005s
param *.metricsApplication.appl.sendBeacons false
param *.metricsApplication.appl.sendData true
param *.metricsApplication.applType "\"TraCIDemoRSU11p\""
param *.metricsApplication.mobility.x 2000
param *.metricsApplication.mobility.y 2000
param *.metricsApplication.mobility.z 3
param *.metricsApplication[*].appl.beaconInterval 0.1s
param *.metricsApplication[*].appl.beaconPriority 3
param *.metricsApplication[*].appl.dataOnSch false
param *.metricsApplication[*].appl.sendData false
param *.node[*0].veinsmobility.accidentCount 1
param *.node[*0].veinsmobility.accidentDuration 30s
param *.node[*0].veinsmobility.accidentStart 10s
param *.node[*].appl.beaconInterval 1s
param *.node[*].appl.beaconLengthBits 800bit
param *.node[*].appl.beaconPriority 3
param *.node[*].appl.dataOnSch false
param *.node[*].appl.dataPriority 2
param *.node[*].appl.debug false
param *.node[*].appl.headerLength "256 bit"
param *.node[*].appl.maxOffset 0.005s
param *.node[*].appl.sendBeacons false
param *.node[*].appl.sendData true
param *.node[*].applType "\"TraCIDemo11p\""
param *.node[*].mobilityType "\"TraCIMobility\""
param *.node[*].mobilityType.debug true
param *.node[*].veinsmobility.x 0
param *.node[*].veinsmobility.y 0
param *.node[*].veinsmobility.z 1.895
param *.node[*].veinsmobilityType "\"org.car2x.veins.modules.mobility.traci.TraCIMobility\""
param *.node[*].veinsmobilityType.debug true
param *.obstacles.debug false
param *.playgroundSizeX 25000m
param *.playgroundSizeY 25000m
param *.playgroundSizeZ 50m
param *.rsu[*].appl.beaconInterval 1s
param *.rsu[*].appl.beaconLengthBits 800bit
param *.rsu[*].appl.beaconPriority 3
param *.rsu[*].appl.dataOnSch false
param *.rsu[*].appl.dataPriority 2
param *.rsu[*].appl.debug false
param *.rsu[*].appl.headerLength "256 bit"
param *.rsu[*].appl.maxOffset 0.005s
param *.rsu[*].appl.sendBeacons false
param *.rsu[*].appl.sendData true
param *.rsu[*].applType "\"TraCIDemoRSU11p\""
param *.rsu[0].mobility.x 2000
param *.rsu[0].mobility.y 2000
param *.rsu[0].mobility.z 3
param *.world.use2D false
param *.world.useTorus false

vector 6  RSUScenario.node[0].veinsmobility  posx  ETV
vector 7  RSUScenario.node[0].veinsmobility  posy  ETV
vector 8  RSUScenario.node[0].veinsmobility  speed  ETV
vector 9  RSUScenario.node[0].veinsmobility  acceleration  ETV
vector 10  RSUScenario.node[0].veinsmobility  co2emission  ETV
vector 13  RSUScenario.node[1].veinsmobility  posx  ETV
vector 14  RSUScenario.node[1].veinsmobility  posy  ETV
vector 15  RSUScenario.node[1].veinsmobility  speed  ETV
vector 20  RSUScenario.node[2].veinsmobility  posx  ETV
vector 21  RSUScenario.node[2].veinsmobility  posy  ETV
vector 16  RSUScenario.node[1].veinsmobility  acceleration  ETV
vector 17  RSUScenario.node[1].veinsmobility  co2emission  ETV
vector 22  RSUScenario.node[2].veinsmobility  speed  ETV
vector 23  RSUScenario.node[2].veinsmobility  acceleration  ETV
vector 24  RSUScenario.node[2].veinsmobility  co2emission  ETV
vector 27  RSUScenario.node[3].veinsmobility  posx  ETV
vector 28  RSUScenario.node[3].veinsmobility  posy  ETV
vector 29  RSUScenario.node[3].veinsmobility  speed  ETV
vector 30  RSUScenario.node[3].veinsmobility  acceleration  ETV
vector 31  RSUScenario.node[3].veinsmobility  co2emission  ETV
vector 34  RSUScenario.node[4].veinsmobility  posx  ETV
vector 35  RSUScenario.node[4].veinsmobility  posy  ETV
vector 36  RSUScenario.node[4].veinsmobility  speed  ETV
vector 37  RSUScenario.node[4].veinsmobility  acceleration  ETV
vector 38  RSUScenario.node[4].veinsmobility  co2emission  ETV
vector 41  RSUScenario.node[5].veinsmobility  posx  ETV
vector 42  RSUScenario.node[5].veinsmobility  posy  ETV
vector 43  RSUScenario.node[5].veinsmobility  speed  ETV
vector 44  RSUScenario.node[5].veinsmobility  acceleration  ETV
vector 45  RSUScenario.node[5].veinsmobility  co2emission  ETV
vector 48  RSUScenario.node[6].veinsmobility  posx  ETV
vector 49  RSUScenario.node[6].veinsmobility  posy  ETV
vector 50  RSUScenario.node[6].veinsmobility  speed  ETV
vector 51  RSUScenario.node[6].veinsmobility  acceleration  ETV
vector 52  RSUScenario.node[6].veinsmobility  co2emission  ETV
vector 55  RSUScenario.node[7].veinsmobility  posx  ETV
vector 56  RSUScenario.node[7].veinsmobility  posy  ETV
vector 57  RSUScenario.node[7].veinsmobility  speed  ETV
vector 58  RSUScenario.node[7].veinsmobility  acceleration  ETV
vector 59  RSUScenario.node[7].veinsmobility  co2emission  ETV
vector 62  RSUScenario.node[8].veinsmobility  posx  ETV
vector 63  RSUScenario.node[8].veinsmobility  posy  ETV
vector 64  RSUScenario.node[8].veinsmobility  speed  ETV
vector 65  RSUScenario.node[8].veinsmobility  acceleration  ETV
vector 66  RSUScenario.node[8].veinsmobility  co2emission  ETV
vector 69  RSUScenario.node[9].veinsmobility  posx  ETV
vector 70  RSUScenario.node[9].veinsmobility  posy  ETV
vector 71  RSUScenario.node[9].veinsmobility  speed  ETV
vector 72  RSUScenario.node[9].veinsmobility  acceleration  ETV
vector 73  RSUScenario.node[9].veinsmobility  co2emission  ETV
vector 76  RSUScenario.node[10].veinsmobility  posx  ETV
vector 77  RSUScenario.node[10].veinsmobility  posy  ETV
vector 78  RSUScenario.node[10].veinsmobility  speed  ETV
vector 79  RSUScenario.node[10].veinsmobility  acceleration  ETV
vector 80  RSUScenario.node[10].veinsmobility  co2emission  ETV
vector 83  RSUScenario.node[11].veinsmobility  posx  ETV
vector 84  RSUScenario.node[11].veinsmobility  posy  ETV
vector 85  RSUScenario.node[11].veinsmobility  speed  ETV
vector 86  RSUScenario.node[11].veinsmobility  acceleration  ETV
vector 87  RSUScenario.node[11].veinsmobility  co2emission  ETV
vector 90  RSUScenario.node[12].veinsmobility  posx  ETV
vector 91  RSUScenario.node[12].veinsmobility  posy  ETV
vector 92  RSUScenario.node[12].veinsmobility  speed  ETV
vector 93  RSUScenario.node[12].veinsmobility  acceleration  ETV
vector 94  RSUScenario.node[12].veinsmobility  co2emission  ETV
vector 97  RSUScenario.node[13].veinsmobility  posx  ETV
vector 98  RSUScenario.node[13].veinsmobility  posy  ETV
vector 99  RSUScenario.node[13].veinsmobility  speed  ETV
vector 100  RSUScenario.node[13].veinsmobility  acceleration  ETV
vector 101  RSUScenario.node[13].veinsmobility  co2emission  ETV
vector 104  RSUScenario.node[14].veinsmobility  posx  ETV
vector 105  RSUScenario.node[14].veinsmobility  posy  ETV
vector 106  RSUScenario.node[14].veinsmobility  speed  ETV
vector 107  RSUScenario.node[14].veinsmobility  acceleration  ETV
vector 108  RSUScenario.node[14].veinsmobility  co2emission  ETV
vector 111  RSUScenario.node[15].veinsmobility  posx  ETV
vector 112  RSUScenario.node[15].veinsmobility  posy  ETV
vector 113  RSUScenario.node[15].veinsmobility  speed  ETV
vector 114  RSUScenario.node[15].veinsmobility  acceleration  ETV
vector 115  RSUScenario.node[15].veinsmobility  co2emission  ETV
6	6	0.1	2413.5228035761
6	33	0.2	2413.5228035761
6	61	0.3	2413.4990679593
6	89	0.4	2413.4523540321
6	117	0.5	2413.3837779759
6	145	0.6	2413.2947216542
6	173	0.7	2413.184679543
6	201	0.8	2413.055999546
6	229	0.9	2412.9070849143
6	259	1	2412.7411072488
6	287	1.1	2412.5547571015
6	315	1.2	2412.3505726117
6	343	1.3	2412.1293650473
6	371	1.4	2411.8884426462
6	399	1.5	2411.6284546569
6	427	1.6	2411.3476920654
6	455	1.7	2411.0534061593
6	483	1.8	2410.7354069871
6	511	1.9	2410.4047617465
6	541	2	2410.0530383223
6	569	2.1	2409.6815885884
6	597	2.2	2409.2915623232
6	625	2.3	2408.8867918925
6	653	2.4	2408.4675267634
6	681	2.5	2408.0303102429
6	709	2.6	2407.5759175542
6	737	2.7	2407.2217262151
6	765	2.8	2406.852856219
6	827	2.9	2406.4741737233
6	892	3	2406.0848611635
6	1001	3.1	2405.6803640836
6	1111	3.2	2405.2635207906
6	1221	3.3	2404.8360158433
6	1331	3.4	2404.3915267653
6	1441	3.5	2403.9377094336
6	1551	3.6	2403.4729408493
6	1661	3.7	2402.9970348678
6	1771	3.8	2402.5094444556
6	1881	3.9	2402.0048973345
6	1993	4	2401.4890126804
6	2103	4.1	2400.9586491727
6	2213	4.2	2400.4117214828
6	2323	4.3	2399.8506938516
6	2433	4.4	2399.2726352139
6	2543	4.5	2398.681951475
6	2653	4.6	2398.0750322411
6	2763	4.7	2397.4584662841
6	2873	4.8	2396.8277437583
6	2983	4.9	2396.1827466838
6	3095	5	2395.5203903834
6	3205	5.1	2394.845857696
6	3315	5.2	2394.1546199707
6	3425	5.3	2393.4462937752
6	3535	5.4	2392.7252529312
6	3645	5.5	2391.9911537296
6	3755	5.6	2391.2445813863
6	3865	5.7	2390.4806750648
6	3975	5.8	2389.7043027696
6	4085	5.9	2388.9156293457
6	4197	6	2388.1124743889
6	4307	6.1	2387.2932858141
6	4417	6.2	2386.4589183036
6	4527	6.3	2385.6122790843
6	4637	6.4	2384.7544825241
6	4747	6.5	2383.881787571
6	4857	6.6	2382.9909506163
6	4967	6.7	2382.089500641
6	5077	6.8	2381.1786614646
6	5187	6.9	2380.2538365171
6	5299	7	2379.3112544597
6	5409	7.1	2378.3571581274
6	5519	7.2	2377.3888299791
6	5629	7.3	2376.4141044286
6	5739	7.4	2375.4426731148
6	5849	7.5	2374.4697539445
6	5959	7.6	2373.5023168639
6	6069	7.7	2372.532817892
6	6179	7.8	2371.5648955498
6	6289	7.9	2370.5938510587
6	6401	8	2369.6264406659
6	6511	8.1	2368.6591046025
6	6621	8.2	2367.6833667543
6	6731	8.3	2366.7087471582
6	6841	8.4	2365.7406082143
6	6951	8.5	2364.7664579938
6	7061	8.6	2363.7956835962
6	7171	8.7	2362.8274309824
6	7339	8.8	2361.8529451287
6	7508	8.9	2360.8795878021
6	7679	9	2359.9125521437
6	7848	9.1	2358.9419908718
6	8017	9.2	2357.9713939317
6	8186	9.3	2357.0042720622
6	8355	9.4	2356.0361789891
6	8524	9.5	2355.0630721707
6	8693	9.6	2354.0908701452
6	8932	9.7	2353.1203555934
6	9172	9.8	2352.1508571646
6	9412	9.9	2351.1799036216
6	9654	10	2350.2079513766
6	9895	10.1	2349.2364217796
6	10135	10.2	2348.2965063285
6	10375	10.3	2347.3882050232
6	10615	10.4	2346.5115178638
6	10855	10.5	2345.6664448504
6	11095	10.6	2344.8529859828
6	11335	10.7	2344.071141261
6	11575	10.8	2343.3209106852
6	11815	10.9	2342.6577188175
6	12057	11	2342.0557652541
6	12297	11.1	2341.4815121049
6	12537	11.2	2340.9349593697
6	12777	11.3	2340.4161070487
6	13017	11.4	2339.9249551418
6	13257	11.5	2339.461503649
6	13497	11.6	2339.0257525702
6	13737	11.7	2338.6177019057
6	13977	11.8	2338.2373516551
6	14217	11.9	2337.8847018188
6	14459	12	2337.5597523965
6	14699	12.1	2337.2625033883
6	14939	12.2	2336.9929547943
6	15179	12.3	2336.7511066144
6	15419	12.4	2336.5369588486
6	15659	12.5	2336.3505114969
6	15899	12.6	2336.1917645592
6	16139	12.7	2336.0607180357
6	16379	12.8	2335.9573719263
6	16619	12.9	2335.881726231
6	16861	13	2335.8337809498
6	17101	13.1	2335.8135360827
6	17341	13.2	2335.8135360827
6	17581	13.3	2335.8135360827
6	17821	13.4	2335.8135360827
6	18061	13.5	2335.8135360827
6	18301	13.6	2335.8135360827
6	18541	13.7	2335.8135360827
6	18781	13.8	2335.8135360827
6	19021	13.9	2335.8135360827
6	19263	14	2335.8135360827
6	19503	14.1	2335.8135360827
6	19743	14.2	2335.8135360827
6	19983	14.3	2335.8135360827
6	20223	14.4	2335.8135360827
6	20463	14.5	2335.8135360827
6	20703	14.6	2335.8135360827
6	20943	14.7	2335.8135360827
6	21183	14.8	2335.8135360827
6	21423	14.9	2335.8135360827
6	21665	15	2335.8135360827
6	21905	15.1	2335.8135360827
6	22145	15.2	2335.8135360827
6	22385	15.3	2335.8135360827
6	22625	15.4	2335.8135360827
6	22865	15.5	2335.8135360827
6	23105	15.6	2335.8135360827
6	23345	15.7	2335.8135360827
6	23585	15.8	2335.8135360827
6	23825	15.9	2335.8135360827
6	24067	16	2335.8135360827
6	24307	16.1	2335.8135360827
6	24547	16.2	2335.8135360827
6	24787	16.3	2335.8135360827
6	25027	16.4	2335.8135360827
6	25267	16.5	2335.8135360827
6	25507	16.6	2335.8135360827
6	25747	16.7	2335.8135360827
6	25987	16.8	2335.8135360827
6	26227	16.9	2335.8135360827
6	26551	17	2335.8135360827
6	26874	17.1	2335.8135360827
6	27197	17.2	2335.8135360827
6	27520	17.3	2335.8135360827
6	27843	17.4	2335.8135360827
6	28166	17.5	2335.8135360827
6	28489	17.6	2335.8135360827
6	28812	17.7	2335.8135360827
6	29135	17.8	2335.8135360827
6	29458	17.9	2335.8135360827
6	29783	18	2335.8135360827
6	30106	18.1	2335.8135360827
6	30429	18.2	2335.8135360827
6	30752	18.3	2335.8135360827
6	31075	18.4	2335.8135360827
6	31398	18.5	2335.8135360827
6	31721	18.6	2335.8135360827
6	32044	18.7	2335.8135360827
6	32367	18.8	2335.8135360827
6	32690	18.9	2335.8135360827
6	33015	19	2335.8135360827
6	33338	19.1	2335.8135360827
6	33661	19.2	2335.8135360827
6	33984	19.3	2335.8135360827
6	34307	19.4	2335.8135360827
6	34630	19.5	2335.8135360827
6	34953	19.6	2335.8135360827
6	35276	19.7	2335.8135360827
6	35599	19.8	2335.8135360827
6	35922	19.9	2335.8135360827
6	36247	20	2335.8135360827
6	36570	20.1	2335.8135360827
6	36893	20.2	2335.8135360827
6	37216	20.3	2335.8135360827
6	37539	20.4	2335.8135360827
6	37862	20.5	2335.8135360827
6	38185	20.6	2335.8135360827
6	38508	20.7	2335.8135360827
6	38831	20.8	2335.8135360827
6	39154	20.9	2335.8135360827
6	39479	21	2335.8135360827
6	39802	21.1	2335.8135360827
6	40125	21.2	2335.8135360827
6	40448	21.3	2335.8135360827
6	40771	21.4	2335.8135360827
6	41094	21.5	2335.8135360827
6	41417	21.6	2335.8135360827
6	41740	21.7	2335.8135360827
6	42063	21.8	2335.8135360827
6	42386	21.9	2335.8135360827
6	42711	22	2335.8135360827
6	43034	22.1	2335.8135360827
6	43357	22.2	2335.8135360827
6	43680	22.3	2335.8135360827
6	44003	22.4	2335.8135360827
6	44326	22.5	2335.8135360827
6	44649	22.6	2335.8135360827
6	44972	22.7	2335.8135360827
6	45295	22.8	2335.8135360827
6	45999	22.9	2335.8135360827
6	46324	23	2335.8135360827
6	46647	23.1	2335.8135360827
6	46970	23.2	2335.8135360827
6	47293	23.3	2335.8135360827
6	47616	23.4	2335.8135360827
6	48033	23.5	2335.8135360827
6	48451	23.6	2335.8135360827
6	48869	23.7	2335.8135360827
6	49287	23.8	2335.8135360827
6	49750	23.9	2335.8135360827
6	50170	24	2335.8135360827
6	50588	24.1	2335.8135360827
6	51006	24.2	2335.8135360827
6	51424	24.3	2335.8135360827
6	51842	24.4	2335.8135360827
6	52260	24.5	2335.8135360827
6	52678	24.6	2335.8135360827
6	53096	24.7	2335.8135360827
6	53514	24.8	2335.8135360827
6	53932	24.9	2335.8135360827
6	54352	25	2335.8135360827
6	54770	25.1	2335.8135360827
6	55188	25.2	2335.8135360827
6	55606	25.3	2335.8135360827
6	56024	25.4	2335.8135360827
6	56442	25.5	2335.8135360827
6	56860	25.6	2335.8135360827
6	57278	25.7	2335.8135360827
6	57696	25.8	2335.8135360827
6	58114	25.9	2335.8135360827
6	58534	26	2335.8135360827
6	58952	26.1	2335.8135360827
6	59370	26.2	2335.8135360827
6	59788	26.3	2335.8135360827
6	60206	26.4	2335.8135360827
6	60624	26.5	2335.8135360827
6	61042	26.6	2335.8135360827
6	61460	26.7	2335.8135360827
6	61878	26.8	2335.8135360827
6	62296	26.9	2335.8135360827
6	62716	27	2335.8135360827
6	63134	27.1	2335.8135360827
6	63552	27.2	2335.8135360827
6	63970	27.3	2335.8135360827
6	64388	27.4	2335.8135360827
6	64806	27.5	2335.8135360827
6	65224	27.6	2335.8135360827
6	65642	27.7	2335.8135360827
6	66060	27.8	2335.8135360827
6	66478	27.9	2335.8135360827
6	66898	28	2335.8135360827
6	67316	28.1	2335.8135360827
6	67734	28.2	2335.8135360827
6	68152	28.3	2335.8135360827
6	68570	28.4	2335.8135360827
6	68988	28.5	2335.8135360827
6	69406	28.6	2335.8135360827
6	69824	28.7	2335.8135360827
6	70242	28.8	2335.8135360827
6	70660	28.9	2335.8135360827
6	71080	29	2335.8135360827
6	71498	29.1	2335.8135360827
6	71916	29.2	2335.8135360827
6	72334	29.3	2335.8135360827
6	72752	29.4	2335.8135360827
6	73170	29.5	2335.8135360827
6	73588	29.6	2335.8135360827
6	74006	29.7	2335.8135360827
6	74424	29.8	2335.8135360827
6	74842	29.9	2335.8135360827
6	75262	30	2335.8135360827
6	75786	30.1	2335.8135360827
6	76311	30.2	2335.8135360827
6	76836	30.3	2335.8135360827
6	77361	30.4	2335.8135360827
6	77886	30.5	2335.8135360827
6	78411	30.6	2335.8135360827
6	78936	30.7	2335.8135360827
6	79461	30.8	2335.8135360827
6	79986	30.9	2335.8135360827
6	80513	31	2335.8135360827
6	81038	31.1	2335.8135360827
6	81563	31.2	2335.8135360827
6	82088	31.3	2335.8135360827
6	82613	31.4	2335.8135360827
6	83138	31.5	2335.8135360827
6	83663	31.6	2335.8135360827
6	84188	31.7	2335.8135360827
6	84713	31.8	2335.8135360827
6	85238	31.9	2335.8135360827
6	85765	32	2335.8135360827
6	86290	32.1	2335.8135360827
6	86815	32.2	2335.8135360827
6	87340	32.3	2335.8135360827
6	87865	32.4	2335.8135360827
6	88390	32.5	2335.8135360827
6	88915	32.6	2335.8135360827
6	89440	32.7	2335.8135360827
6	89965	32.8	2335.8135360827
6	90490	32.9	2335.8135360827
6	91017	33	2335.8135360827
6	91542	33.1	2335.8135360827
6	92067	33.2	2335.8135360827
6	92592	33.3	2335.8135360827
6	93117	33.4	2335.8135360827
6	93642	33.5	2335.8135360827
6	94167	33.6	2335.8135360827
6	94692	33.7	2335.8135360827
6	95217	33.8	2335.8135360827
6	95742	33.9	2335.8135360827
6	96269	34	2335.8135360827
6	96794	34.1	2335.8135360827
6	97319	34.2	2335.8135360827
6	97844	34.3	2335.8135360827
6	98369	34.4	2335.8135360827
6	98894	34.5	2335.8135360827
6	99419	34.6	2335.8135360827
6	99944	34.7	2335.8135360827
6	100469	34.8	2335.8135360827
6	100994	34.9	2335.8135360827
6	101521	35	2335.8135360827
6	102046	35.1	2335.8135360827
6	102571	35.2	2335.8135360827
6	103096	35.3	2335.8135360827
6	103621	35.4	2335.8135360827
6	104146	35.5	2335.8135360827
6	104671	35.6	2335.8135360827
6	105196	35.7	2335.8135360827
6	105721	35.8	2335.8135360827
6	106246	35.9	2335.8135360827
6	106773	36	2335.8135360827
6	107298	36.1	2335.8135360827
6	107823	36.2	2335.8135360827
6	108348	36.3	2335.8135360827
6	108873	36.4	2335.8135360827
6	109398	36.5	2335.8135360827
6	109923	36.6	2335.8135360827
6	110566	36.7	2335.8135360827
6	111210	36.8	2335.8135360827
6	111854	36.9	2335.8135360827
6	112500	37	2335.8135360827
6	113144	37.1	2335.8135360827
6	113788	37.2	2335.8135360827
6	114432	37.3	2335.8135360827
6	115076	37.4	2335.8135360827
6	115720	37.5	2335.8135360827
6	116364	37.6	2335.8135360827
6	117008	37.7	2335.8135360827
6	117652	37.8	2335.8135360827
6	118296	37.9	2335.8135360827
6	118942	38	2335.8135360827
6	119586	38.1	2335.8135360827
6	120230	38.2	2335.8135360827
6	120874	38.3	2335.8135360827
6	121518	38.4	2335.8135360827
6	122162	38.5	2335.8135360827
6	122806	38.6	2335.8135360827
6	123450	38.7	2335.8135360827
6	124094	38.8	2335.8135360827
6	124738	38.9	2335.8135360827
6	125384	39	2335.8135360827
6	126028	39.1	2335.8135360827
6	126672	39.2	2335.8135360827
6	127316	39.3	2335.8135360827
6	127960	39.4	2335.8135360827
6	128604	39.5	2335.8135360827
6	129248	39.6	2335.8135360827
6	129892	39.7	2335.8135360827
6	130536	39.8	2335.8135360827
6	131180	39.9	2335.8135360827
6	131826	40	2335.8135360827
6	132471	40.1	2335.8135360827
6	133115	40.2	2335.7976766226
6	133759	40.3	2335.7669379371
6	134403	40.4	2335.7209724501
6	135047	40.5	2335.6593244958
6	135691	40.6	2335.5839842899
6	136335	40.7	2335.4946285792
6	136979	40.8	2335.3900704153
6	137623	40.9	2335.3218675253
6	138269	41	2335.2866516593
6	138913	41.1	2335.2479024053
6	139557	41.2	2335.205583023
6	140201	41.3	2335.1598138808
6	140845	41.4	2335.110091676
6	141489	41.5	2335.0579426829
6	142133	41.6	2335.0031823904
6	142777	41.7	2334.9458829934
6	143421	41.8	2334.8862110758
6	144065	41.9	2334.8243720157
6	144711	42	2334.758829153
6	145355	42.1	2334.6894232738
6	145999	42.2	2334.6170884792
6	146643	42.3	2334.5406284867
6	147287	42.4	2334.4603377025
6	147931	42.5	2334.3778574504
6	148575	42.6	2334.2932245018
6	149219	42.7	2334.2059971241
6	149863	42.8	2334.1166252577
6	150507	42.9	2334.0248293291
6	151153	43	2333.9702257772
6	151797	43.1	2333.9284496135
6	152441	43.2	2333.8853595671
6	153215	43.3	2333.8404855328
6	153990	43.4	2333.8772147262
6	154765	43.5	2333.9817702411
6	155540	43.6	2334.0887643807
6	156315	43.7	2334.248874091
6	157090	43.8	2334.5617023489
6	157865	43.9	2334.8781398148
6	158642	44	2335.2889642091
6	159417	44.1	2335.8248195443
6	160192	44.2	2336.3748105428
6	160967	44.3	2337.0055019215
6	161742	44.4	2337.6634779783
6	162517	44.5	2338.3374988756
6	163292	44.6	2339.0235537376
6	164067	44.7	2339.7220847078
6	164842	44.8	2340.4353002737
6	165617	44.9	2341.1606813946
6	166394	45	2341.8981782745
6	167169	45.1	2342.6510459094
6	167944	45.2	2343.4197816416
6	168719	45.3	2344.203261809
6	169494	45.4	2345.0040747443
6	170269	45.5	2345.7960989496
6	171044	45.6	2346.5974009507
6	171819	45.7	2347.4141877178
6	172594	45.8	2348.2477101308
6	173369	45.9	2349.0997678844
6	174146	46	2349.9628291336
6	174921	46.1	2350.8445721584
6	175696	46.2	2351.7392792852
6	176471	46.3	2352.6509178458
6	177246	46.4	2353.5785856461
6	178021	46.5	2354.5185155971
6	178796	46.6	2355.4773267108
6	179571	46.7	2356.4528900974
6	180346	46.8	2357.4391582523
6	181121	46.9	2358.4371521838
6	181898	47	2359.4529380344
6	182673	47.1	2360.4799320784
6	183448	47.2	2361.6355579514
6	184223	47.3	2362.9968973749
6	184998	47.4	2364.3675596107
6	185773	47.5	2365.7289567343
6	186548	47.6	2367.0978407655
6	187323	47.7	2368.4612065677
6	188098	47.8	2369.8244058784
6	188873	47.9	2371.1967239553
6	189650	48	2372.5641857057
6	190425	48.1	2373.928167943
6	191200	48.2	2375.2931488298
6	191975	48.3	2376.655038632
6	192750	48.4	2378.0280950315
6	193525	48.5	2379.4023395238
6	194300	48.6	2380.775735044
6	195075	48.7	2382.1426104081
6	195850	48.8	2383.5147152204
6	196625	48.9	2384.8888394635
6	197402	49	2386.2633383123
6	198177	49.1	2387.6372089053
6	198952	49.2	2389.0072509451
6	199727	49.3	2390.3770404299
6	200502	49.4	2391.7572045008
6	201277	49.5	2393.1280696398
6	202052	49.6	2394.4715954061
6	202827	49.7	2395.7847561663
6	203602	49.8	2397.0672880899
6	204519	49.9	2398.3210812972
6	205439	50	2399.5329060412
6	206357	50.1	2400.7191512106
6	207275	50.2	2401.8689414647
6	208193	50.3	2402.97711463
6	209111	50.4	2404.052589464
6	210029	50.5	2405.0955786383
6	210947	50.6	2406.1070617165
6	211865	50.7	2407.0906104628
6	212783	50.8	2408.0423968722
6	213701	50.9	2408.9615827597
6	214621	51	2409.8600981107
6	215539	51.1	2410.7282504621
6	216457	51.2	2411.559380565
6	217375	51.3	2412.3576123867
6	218293	51.4	2413.1245945289
6	219211	51.5	2413.8636359161
6	220129	51.6	2414.5804276634
6	221047	51.7	2415.2665432912
6	221965	51.8	2415.9302174492
6	222883	51.9	2416.5671428993
6	223803	52	2417.1771001875
6	224721	52.1	2417.7588767415
6	225639	52.2	2418.3047237276
6	226557	52.3	2418.8347543384
6	227475	52.4	2419.3377937775
6	228393	52.5	2419.8156552634
6	229311	52.6	2420.2653455744
6	230229	52.7	2420.6958320168
6	231147	52.8	2421.1046815246
6	232065	52.9	2421.4907743277
6	232985	53	2421.8499464939
6	233903	53.1	2422.1929528151
6	234821	53.2	2422.5627477559
6	235739	53.3	2422.9584969574
6	236657	53.4	2423.3802004198
6	237575	53.5	2423.8278581428
6	238493	53.6	2424.3014701267
6	239411	53.7	2424.8010363713
6	240329	53.8	2425.3265568765
6	241247	53.9	2425.8780316426
6	242167	54	2426.4554606695
6	243085	54.1	2427.0448663136
6	244003	54.2	2427.656492346
6	244921	54.3	2428.2772771311
6	245839	54.4	2428.8667343922
6	246757	54.5	2429.4616201781
6	247675	54.6	2429.9253203772
6	248593	54.7	2430.318805741
6	249511	54.8	2430.5544192272
6	250429	54.9	2430.7186030316
6	251349	55	2430.8346156423
6	252267	55.1	2430.9534610881
6	253185	55.2	2431.0746331986
6	254103	55.3	2431.1990964611
6	255021	55.4	2431.3256875806
6	255939	55.5	2431.456003951
6	256857	55.6	2431.5900232051
6	257775	55.7	2431.727055019
6	258693	55.8	2431.8672696726
6	259611	55.9	2432.0103509973
6	260531	56	2432.1557196825
6	261449	56.1	2432.3045508179
6	262367	56.2	2432.4564119068
6	263285	56.3	2432.610340255
6	264357	56.4	2432.7676738484
6	265430	56.5	2432.9287781237
6	266503	56.6	2433.0926804295
6	267576	56.7	2433.2603656769
6	268649	56.8	2433.4308357668
6	269722	56.9	2433.6047821293
6	270797	57	2433.7821106946
6	271870	57.1	2433.9619267746
6	272943	57.2	2434.144520857
6	274016	57.3	2434.3302792826
6	275089	57.4	2434.5183711704
6	276162	57.5	2434.7102450975
6	277235	57.6	2434.9054632123
6	278308	57.7	2435.1040933222
6	279381	57.8	2435.3064047348
6	280454	57.9	2435.5116508988
6	281529	58	2435.7197904107
6	282602	58.1	2435.9308854238
6	283675	58.2	2436.144763333
6	284748	58.3	2436.3618329067
6	285821	58.4	2436.5823278789
6	286894	58.5	2436.8058953594
6	287967	58.6	2437.0314802678
6	289040	58.7	2437.2606126035
6	290113	58.8	2437.493014236
6	291186	58.9	2437.7285228845
6	292261	59	2437.9020105352
6	293334	59.1	2438.076804294
6	294407	59.2	2438.2489182804
6	295480	59.3	2438.3627788897
6	296553	59.4	2438.4774951247
6	297626	59.5	2438.5924872791
6	298699	59.6	2438.6942874631
6	299772	59.7	2438.7860142631
6	300846	59.8	2438.878213366
6	301919	59.9	2438.9717309745
6	302994	60	2439.0747891292
6	304067	60.1	2439.177726632
6	305140	60.2	2439.2857922619
6	306213	60.3	2439.4062980182
6	307286	60.4	2439.5269776713
6	308359	60.5	2439.6472614734
6	309432	60.6	2439.7673224774
6	310505	60.7	2439.8874491396
6	311578	60.8	2440.0075474345
6	312651	60.9	2440.1278166261
6	313726	61	2440.2480259184
6	314799	61.1	2440.3685641398
6	315872	61.2	2440.4887111954
6	316945	61.3	2440.6094454655
6	318018	61.4	2440.7294308563
6	319091	61.5	2440.8500281934
6	320164	61.6	2440.9706320644
6	321237	61.7	2441.0912898991
6	322310	61.8	2441.2118663429
6	323383	61.9	2441.3322198681
6	324458	62	2441.4523351005
6	325531	62.1	2441.5727594653
6	326604	62.2	2441.6928630207
6	327677	62.3	2441.8135043388
6	328750	62.4	2441.9338661145
6	329823	62.5	2442.0546106949
6	330896	62.6	2442.175266752
6	331969	62.7	2442.2959302113
6	333042	62.8	2442.4166166702
6	334115	62.9	2442.5369750387
6	335190	63	2442.6577806006
6	336263	63.1	2442.7779944626
6	337336	63.2	2442.8986748031
6	338409	63.3	2443.0191299842
6	339482	63.4	2443.1398550213
6	340555	63.5	2443.2599722145
6	341628	63.6	2443.3803720747
6	342701	63.7	2443.5012441218
6	343774	63.8	2443.6218249927
6	344847	63.9	2443.7420055086
6	345922	64	2443.8628730122
6	346995	64.1	2443.9833877179
6	348068	64.2	2444.1035140295
6	349141	64.3	2444.2243285802
6	350214	64.4	2444.3448269974
6	351287	64.5	2444.4651721782
6	352360	64.6	2444.5857164124
6	353433	64.7	2444.7061128743
6	354506	64.8	2444.8264868826
6	355579	64.9	2444.9468656736
6	356654	65	2445.0677254805
6	357727	65.1	2445.1879431593
6	358800	65.2	2445.3082461701
6	359873	65.3	2445.4284332049
6	360946	65.4	2445.5488325917
6	362019	65.5	2445.6695532555
6	363092	65.6	2445.7902441978
6	364165	65.7	2445.9105970181
6	365238	65.8	2446.0313841166
6	366311	65.9	2446.1517044773
6	367386	66	2446.2716782104
6	368459	66.1	2446.3920825793
6	369532	66.2	2446.5126861669
6	370605	66.3	2446.6332039443
6	371678	66.4	2446.7540289266
6	372751	66.5	2446.8741687079
6	373824	66.6	2446.9947433303
6	374897	66.7	2447.1148050345
6	375970	66.8	2447.2350315744
6	377043	66.9	2447.3552858523
6	378118	67	2447.4754354758
6	379191	67.1	2447.5959071798
6	380264	67.2	2447.7160372523
6	381337	67.3	2447.8362483671
6	382410	67.4	2447.9564280475
6	383483	67.5	2448.076429463
6	384556	67.6	2448.1970465308
6	385629	67.7	2448.3179369733
6	386702	67.8	2448.438222836
6	387775	67.9	2448.5589356006
6	388850	68	2448.6790937529
6	389923	68.1	2448.7996277345
6	390996	68.2	2448.9202536324
6	392069	68.3	2449.040821381
6	393142	68.4	2449.1613121978
6	394215	68.5	2449.2815857389
6	395288	68.6	2449.4018392829
6	396361	68.7	2449.522670874
6	397434	68.8	2449.6431102186
6	398507	68.9	2449.7638538582
6	399582	69	2449.8845802501
6	400655	69.1	2450.0053707244
6	401728	69.2	2450.1256620856
6	402801	69.3	2450.2456198875
6	403874	69.4	2450.3663939582
6	404947	69.5	2450.4867346778
6	406020	69.6	2450.6071540578
6	407093	69.7	2450.5854600215
6	408682	69.8	2450.4528874736
6	409755	69.9	2450.3202876515
6	410830	70	2450.1878701294
6	411903	70.1	2450.0554981489
6	412976	70.2	2449.9225574502
6	414049	70.3	2449.7897322887
6	415122	70.4	2449.6569462875
6	416195	70.5	2449.524328543
6	417268	70.6	2449.3916386367
6	418341	70.7	2449.2587099491
6	419492	70.8	2449.1257471208
6	420565	70.9	2448.9933713824
6	421640	71	2448.8612439566
6	422713	71.1	2448.7290960681
6	423786	71.2	2448.5960341899
6	424859	71.3	2448.4631015263
6	425932	71.4	2448.3307990729
6	427005	71.5	2448.1979415971
6	428078	71.6	2448.065785944
6	429151	71.7	2447.9333967392
6	430224	71.8	2447.8006072326
6	431297	71.9	2447.6675833693
6	432372	72	2447.534706515
6	433445	72.1	2447.4022133193
6	434518	72.2	2447.269087302
6	435591	72.3	2447.1364146664
6	436664	72.4	2447.0039654615
6	437737	72.5	2446.8716723126
6	438810	72.6	2446.7388429223
6	439883	72.7	2446.6058107908
6	440956	72.8	2446.4727981937
6	442029	72.9	2446.3397973669
6	443104	73	2446.207494452
6	444177	73.1	2446.0752090949
6	445250	73.2	2445.9427902105
6	446323	73.3	2445.8102378859
6	447396	73.4	2445.6780814555
6	448469	73.5	2445.5456010234
6	449542	73.6	2445.4125277683
6	450615	73.7	2445.2798395308
6	451688	73.8	2445.1470169094
6	452761	73.9	2445.014832359
6	453836	74	2444.8824154078
6	454909	74.1	2444.7493434165
6	455982	74.2	2444.6164961236
6	457055	74.3	2444.4838859406
6	458128	74.4	2444.3511729592
6	459201	74.5	2444.2188032474
6	460274	74.6	2444.0860961876
6	461347	74.7	2443.9532246111
6	462420	74.8	2443.8209850704
6	463493	74.9	2443.6879307003
6	464568	75	2443.5556206772
6	465641	75.1	2443.4232056991
6	466714	75.2	2443.2911075875
6	467787	75.3	2443.1581413874
6	468860	75.4	2443.0251950157
6	469933	75.5	2442.8928475985
6	471006	75.6	2442.7601892751
6	472079	75.7	2442.6279182405
6	473152	75.8	2442.4949133341
6	474225	75.9	2442.3627540777
6	475300	76	2442.2302178091
6	476373	76.1	2442.0978164513
6	477446	76.2	2441.9647789511
6	478519	76.3	2441.8322247674
6	479592	76.4	2441.6992703317
6	480665	76.5	2441.5664224118
6	481738	76.6	2441.4338762006
6	482811	76.7	2441.3017062269
6	483884	76.8	2441.1691969832
6	484957	76.9	2441.036077069
6	486032	77	2440.9036293729
6	487105	77.1	2440.7708770349
6	488178	77.2	2440.6380310919
6	489251	77.3	2440.5051678672
6	490324	77.4	2440.391943558
6	491397	77.5	2440.2793846471
6	492470	77.6	2440.1676364198
6	493543	77.7	2440.055431409
6	494616	77.8	2439.9430356402
6	495689	77.9	2439.8313036434
6	496764	78	2439.7191209735
6	497837	78.1	2439.6071191446
6	498910	78.2	2439.4946018112
6	499983	78.3	2439.3828096065
6	501056	78.4	2439.2705471319
6	502129	78.5	2439.1580620353
6	503202	78.6	2439.0461655058
6	504275	78.7	2438.9339905928
6	505348	78.8	2438.821628361
6	506421	78.9	2438.7099246457
6	507496	79	2438.642280941
6	508569	79.1	2438.5900536161
6	509642	79.2	2438.5960657515
6	510715	79.3	2438.59356443
6	511788	79.4	2438.5392510567
6	512861	79.5	2438.3341244617
6	513934	79.6	2438.0957390196
6	515007	79.7	2437.7638153746
6	516080	79.8	2437.4294381841
6	517153	79.9	2437.0909556031
6	518228	80	2436.7487575201
6	519301	80.1	2435.8738243008
6	520374	80.2	2434.9023398818
6	521447	80.3	2433.9181276382
6	522520	80.4	2432.9218662279
6	523593	80.5	2431.7770556934
6	524666	80.6	2430.5367119343
6	525739	80.7	2429.2829051639
6	526812	80.8	2427.7051048271
6	527885	80.9	2425.9868988803
6	528960	81	2424.2569105265
6	530033	81.1	2422.4833479302
6	531106	81.2	2420.5734192046
6	532179	81.3	2418.6463246867
6	533252	81.4	2416.7061382303
6	534325	81.5	2414.7019831508
6	535398	81.6	2412.6001317356
6	536471	81.7	2410.4804506351
6	537544	81.8	2408.3197165693
6	538617	81.9	2406.1042429649
6	539692	82	2403.8911637331
6	540765	82.1	2401.6812916048
6	541838	82.2	2399.4697357307
6	542911	82.3	2397.2503635482
6	543984	82.4	2395.0352379007
6	545057	82.5	2392.8218195653
6	546130	82.6	2390.6058832592
6	547203	82.7	2388.3882714141
6	548276	82.8	2386.1745745281
6	549349	82.9	2383.9557251828
6	550424	83	2381.7388936646
6	551497	83.1	2379.5261376499
6	552570	83.2	2377.3078877291
6	553643	83.3	2375.0945197087
6	554716	83.4	2372.8790980163
6	555789	83.5	2370.6708191676
6	556862	83.6	2368.4568368217
6	557935	83.7	2366.2382742697
6	559008	83.8	2364.0242834805
6	560081	83.9	2361.8061213393
6	561156	84	2359.5882654717
6	562229	84.1	2357.3788020706
6	563302	84.2	2355.1689990043
6	564375	84.3	2352.9554620737
6	565448	84.4	2350.7470095175
6	566521	84.5	2348.5380265062
6	567594	84.6	2346.3191734146
6	568667	84.7	2344.1035328978
6	569740	84.8	2341.8947551212
6	570813	84.9	2339.6813867921
6	571888	85	2337.4618182724
6	572961	85.1	2335.2503118869
6	574034	85.2	2333.040084172
6	575107	85.3	2330.8274115758
6	576180	85.4	2328.6093962885
6	577253	85.5	2326.3915270981
6	578326	85.6	2324.1752455989
6	579399	85.7	2321.9599689459
6	580472	85.8	2319.7480667399
6	581545	85.9	2317.5360973908
6	582620	86	2315.3193474378
6	583693	86.1	2313.1028313593
6	584766	86.2	2310.8948207935
6	585839	86.3	2308.6809457436
6	586912	86.4	2306.4629176421
6	587985	86.5	2304.2465769999
6	589058	86.6	2302.0309646114
6	590131	86.7	2299.8220680178
6	591204	86.8	2297.6021866256
6	592277	86.9	2295.382038726
6	593352	87	2293.1680560262
6	594425	87.1	2290.9517005532
6	595498	87.2	2288.7397518907
6	596571	87.3	2286.5312923748
6	597644	87.4	2284.3125741573
6	598717	87.5	2282.0942177033
6	599790	87.6	2279.8765376648
6	600863	87.7	2277.6585752772
6	601936	87.8	2275.4496315372
6	603009	87.9	2273.2368036686
6	604084	88	2271.027537497
6	605157	88.1	2268.8111119742
6	606230	88.2	2266.6013687851
6	607303	88.3	2264.3845224378
6	608376	88.4	2262.1662316748
6	609449	88.5	2259.9473318276
6	610522	88.6	2257.7307038847
6	611595	88.7	2255.5115232288
6	612668	88.8	2253.2968161413
6	613741	88.9	2251.0872731904
6	614816	89	2248.8732468901
6	615889	89.1	2246.6644203138
6	616962	89.2	2244.4692697524
6	618035	89.3	2242.2773674065
6	619108	89.4	2240.0843951554
6	620181	89.5	2237.8913545508
6	621254	89.6	2235.6930724138
6	622327	89.7	2233.4995571797
6	623401	89.8	2231.3018286936
6	624474	89.9	2229.1084175581
6	625549	90	2226.9115395247
6	626622	90.1	2224.7222330216
6	627695	90.2	2222.5267445872
6	628768	90.3	2220.339460007
6	629841	90.4	2218.1503002911
6	630914	90.5	2215.9652244584
6	631987	90.6	2213.8664626635
6	633060	90.7	2211.7648323186
6	634133	90.8	2209.6607938305
6	635206	90.9	2207.5672881387
6	636281	91	2205.4843172043
6	637354	91.1	2203.4330628788
6	638427	91.2	2201.4199044397
6	639500	91.3	2199.4493617537
6	640573	91.4	2197.5074328197
6	641646	91.5	2195.6000842741
6	642719	91.6	2193.7353514815
6	643792	91.7	2191.9034261394
6	644865	91.8	2190.1004943113
6	645938	91.9	2188.3327792077
6	647179	92	2186.6007154157
6	648419	92.1	2184.9102832004
6	649659	92.2	2183.2572906398
6	650899	92.3	2181.6316023171
6	652139	92.4	2180.045068872
6	653379	92.5	2178.4908299925
6	654619	92.6	2177.0821162026
6	655859	92.7	2175.7238477196
6	657099	92.8	2174.4004623061
6	658339	92.9	2173.1125958867
6	659581	93	2171.8550201535
6	660821	93.1	2170.6275421804
6	662061	93.2	2169.4235906826
6	663301	93.3	2168.2489980783
6	664541	93.4	2167.1028931511
6	665781	93.5	2165.9869496032
6	667021	93.6	2164.9073669832
6	668261	93.7	2163.8571013917
6	669501	93.8	2162.8335790577
6	670741	93.9	2161.8409932165
6	671983	94	2160.8698082893
6	673223	94.1	2159.9316709348
6	674463	94.2	2159.0233348754
6	675703	94.3	2158.1351516709
6	676943	94.4	2157.282624744
6	678183	94.5	2156.4528309244
6	679423	94.6	2155.6481644392
6	680841	94.7	2154.8665587093
6	682260	94.8	2154.1148491844
6	683679	94.9	2153.3911661705
6	685100	95	2152.6880930682
6	686519	95.1	2152.0200608192
6	687938	95.2	2151.3680132945
6	689357	95.3	2150.7505544246
6	690776	95.4	2150.1477753643
6	692195	95.5	2149.5741300429
6	693614	95.6	2149.0228661055
6	695033	95.7	2148.4913410305
6	696452	95.8	2147.9871007997
6	697871	95.9	2147.5078655581
6	699292	96	2147.0491723928
6	700711	96.1	2146.608056641
6	702130	96.2	2146.1950534128
6	703549	96.3	2145.7945593614
6	704968	96.4	2145.4145767136
6	706387	96.5	2145.0558327099
6	707806	96.6	2144.716242959
6	709225	96.7	2144.3958531952
6	710644	96.8	2144.1024207441
6	712063	96.9	2143.7865824022
6	713484	97	2143.4483381693
6	714903	97.1	2143.0876880455
6	716322	97.2	2142.7046320307
6	717741	97.3	2142.2991701249
6	719350	97.4	2141.8713023283
6	720960	97.5	2141.4210286408
6	722570	97.6	2140.9483490624
6	724180	97.7	2140.4532635929
6	725790	97.8	2139.9713344566
6	727400	97.9	2139.4911399911
6	729012	98	2138.9996931015
6	730622	98.1	2138.4902926447
6	732232	98.2	2137.966209702
6	733842	98.3	2137.4379028057
6	735452	98.4	2136.951673934
6	737062	98.5	2136.4501715386
6	738672	98.6	2135.937941475
6	740282	98.7	2135.4127162211
6	741892	98.8	2134.8748679567
6	743502	98.9	2134.3214520816
6	745114	99	2133.7541734914
6	746724	99.1	2133.1762437001
6	748334	99.2	2132.5829012223
6	749944	99.3	2131.9780904093
6	751554	99.4	2131.3633105704
6	753164	99.5	2130.7327381747
6	754774	99.6	2130.0853852412
6	756384	99.7	2129.4222505606
6	757994	99.8	2128.7490947001
6	759604	99.9	2128.0625707726
6	761418	100	2127.3666258332
6	763231	100.1	2126.6605891761
6	765044	100.2	2125.9439960456
6	766857	100.3	2125.2097436885
6	768670	100.4	2124.4651232176
6	770483	100.5	2123.7058098242
6	772296	100.6	2122.932824889
6	774109	100.7	2122.1441960313
6	775922	100.8	2121.3440604353
6	777735	100.9	2120.5278623929
6	779550	101	2119.7013433208
7	6	0.1	1578.9478335427
7	33	0.2	1578.9478335427
7	61	0.3	1578.9565491369
7	89	0.4	1578.9737022473
7	117	0.5	1578.9988830173
7	145	0.6	1579.0315840337
7	173	0.7	1579.071990923
7	201	0.8	1579.1192415459
7	229	0.9	1579.1739222221
7	259	1	1579.2348683542
7	287	1.1	1579.303295156
7	315	1.2	1579.3782706345
7	343	1.3	1579.4594968976
7	371	1.4	1579.5479623461
7	399	1.5	1579.643428579
7	427	1.6	1579.7465231372
7	455	1.7	1579.8545833863
7	483	1.8	1579.9713510228
7	511	1.9	1580.092762229
7	541	2	1580.2219132353
7	569	2.1	1580.3583076382
7	597	2.2	1580.5015232479
7	625	2.3	1580.6501528369
7	653	2.4	1580.8041048041
7	681	2.5	1580.9646484293
7	709	2.6	1581.1341349548
7	737	2.7	1581.4928819863
7	765	2.8	1581.8664964745
7	827	2.9	1582.250049674
7	892	3	1582.6443696627
7	1001	3.1	1583.054069479
7	1111	3.2	1583.4762743087
7	1221	3.3	1583.9092779243
7	1331	3.4	1584.3594841259
7	1441	3.5	1584.8191385623
7	1551	3.6	1585.2898851093
7	1661	3.7	1585.7719123047
7	1771	3.8	1586.2657742193
7	1881	3.9	1586.7768109441
7	1993	4	1587.2993310271
7	2103	4.1	1587.836516195
7	2213	4.2	1588.390478597
7	2323	4.3	1588.9587222971
7	2433	4.4	1589.544216061
7	2543	4.5	1590.1424973132
7	2653	4.6	1590.7572228843
7	2763	4.7	1591.3817192577
7	2873	4.8	1592.0205542846
7	2983	4.9	1592.6738474621
7	3095	5	1593.3447231445
7	3205	5.1	1594.0279318299
7	3315	5.2	1594.7280604169
7	3425	5.3	1595.4454972707
7	3535	5.4	1596.1758123105
7	3645	5.5	1596.9193536686
7	3755	5.6	1597.6755286008
7	3865	5.7	1598.4492604639
7	3975	5.8	1599.2356186425
7	4085	5.9	1600.0344361691
7	4197	6	1600.8479214935
7	4307	6.1	1601.677646663
7	4417	6.2	1602.5227460051
7	4527	6.3	1603.3802748965
7	4637	6.4	1604.2491046367
7	4747	6.5	1605.1330243973
7	4857	6.6	1606.0353195062
7	4967	6.7	1606.9483641423
7	5077	6.8	1607.8709187461
7	5187	6.9	1608.8076390093
7	5299	7	1609.7623447776
7	5409	7.1	1610.728712921
7	5519	7.2	1611.7094959328
7	5629	7.3	1612.6967586325
7	5739	7.4	1613.6806847239
7	5849	7.5	1614.6661178088
7	5959	7.6	1615.6459982917
7	6069	7.7	1616.6279671872
7	6179	7.8	1617.6083391737
7	6289	7.9	1618.591873467
7	6401	8	1619.5717269192
7	6511	8.1	1620.551505086
7	6621	8.2	1621.539793103
7	6731	8.3	1622.5269484855
7	6841	8.4	1623.507539859
7	6951	8.5	1624.4942198284
7	7061	8.6	1625.477480554
7	7171	8.7	1626.4581870604
7	7339	8.8	1627.4452069802
7	7508	8.9	1628.4310838571
7	7679	9	1629.4105577543
7	7848	9.1	1630.3936026134
7	8017	9.2	1631.3766835993
7	8186	9.3	1632.3562448164
7	8355	9.4	1633.33678973
7	8524	9.5	1634.3224128764
7	8693	9.6	1635.307119593
7	8932	9.7	1636.2901171306
7	9172	9.8	1637.2720854757
7	9412	9.9	1638.2555276509
7	9654	10	1639.2399813738
7	9895	10.1	1640.2240070123
7	10135	10.2	1641.1760118762
7	10375	10.3	1642.0959959663
7	10615	10.4	1642.9839592818
7	10855	10.5	1643.8399018226
7	11095	10.6	1644.6638235888
7	11335	10.7	1645.4557245811
7	11575	10.8	1646.2156047979
7	11815	10.9	1646.9921809696
7	12057	11	1647.76277522
7	12297	11.1	1648.4979086285
7	12537	11.2	1649.1975811962
7	12777	11.3	1649.861792922
7	13017	11.4	1650.4905438069
7	13257	11.5	1651.0838338509
7	13497	11.6	1651.6416630521
7	13737	11.7	1652.1640314134
7	13977	11.8	1652.6509389319
7	14217	11.9	1653.1023856094
7	14459	12	1653.5183714461
7	14699	12.1	1653.8988964409
7	14939	12.2	1654.2439605948
7	15179	12.3	1654.5535639068
7	15419	12.4	1654.827706377
7	15659	12.5	1655.0663880063
7	15899	12.6	1655.2696087947
7	16139	12.7	1655.4373687403
7	16379	12.8	1655.569667846
7	16619	12.9	1655.6665061098
7	16861	13	1655.7278835317
7	17101	13.1	1655.7538001128
7	17341	13.2	1655.7538001128
7	17581	13.3	1655.7538001128
7	17821	13.4	1655.7538001128
7	18061	13.5	1655.7538001128
7	18301	13.6	1655.7538001128
7	18541	13.7	1655.7538001128
7	18781	13.8	1655.7538001128
7	19021	13.9	1655.7538001128
7	19263	14	1655.7538001128
7	19503	14.1	1655.7538001128
7	19743	14.2	1655.7538001128
7	19983	14.3	1655.7538001128
7	20223	14.4	1655.7538001128
7	20463	14.5	1655.7538001128
7	20703	14.6	1655.7538001128
7	20943	14.7	1655.7538001128
7	21183	14.8	1655.7538001128
7	21423	14.9	1655.7538001128
7	21665	15	1655.7538001128
7	21905	15.1	1655.7538001128
7	22145	15.2	1655.7538001128
7	22385	15.3	1655.7538001128
7	22625	15.4	1655.7538001128
7	22865	15.5	1655.7538001128
7	23105	15.6	1655.7538001128
7	23345	15.7	1655.7538001128
7	23585	15.8	1655.7538001128
7	23825	15.9	1655.7538001128
7	24067	16	1655.7538001128
7	24307	16.1	1655.7538001128
7	24547	16.2	1655.7538001128
7	24787	16.3	1655.7538001128
7	25027	16.4	1655.7538001128
7	25267	16.5	1655.7538001128
7	25507	16.6	1655.7538001128
7	25747	16.7	1655.7538001128
7	25987	16.8	1655.7538001128
7	26227	16.9	1655.7538001128
7	26551	17	1655.7538001128
7	26874	17.1	1655.7538001128
7	27197	17.2	1655.7538001128
7	27520	17.3	1655.7538001128
7	27843	17.4	1655.7538001128
7	28166	17.5	1655.7538001128
7	28489	17.6	1655.7538001128
7	28812	17.7	1655.7538001128
7	29135	17.8	1655.7538001128
7	29458	17.9	1655.7538001128
7	29783	18	1655.7538001128
7	30106	18.1	1655.7538001128
7	30429	18.2	1655.7538001128
7	30752	18.3	1655.7538001128
7	31075	18.4	1655.7538001128
7	31398	18.5	1655.7538001128
7	31721	18.6	1655.7538001128
7	32044	18.7	1655.7538001128
7	32367	18.8	1655.7538001128
7	32690	18.9	1655.7538001128
7	33015	19	1655.7538001128
7	33338	19.1	1655.7538001128
7	33661	19.2	1655.7538001128
7	33984	19.3	1655.7538001128
7	34307	19.4	1655.7538001128
7	34630	19.5	1655.7538001128
7	34953	19.6	1655.7538001128
7	35276	19.7	1655.7538001128
7	35599	19.8	1655.7538001128
7	35922	19.9	1655.7538001128
7	36247	20	1655.7538001128
7	36570	20.1	1655.7538001128
7	36893	20.2	1655.7538001128
7	37216	20.3	1655.7538001128
7	37539	20.4	1655.7538001128
7	37862	20.5	1655.7538001128
7	38185	20.6	1655.7538001128
7	38508	20.7	1655.7538001128
7	38831	20.8	1655.7538001128
7	39154	20.9	1655.7538001128
7	39479	21	1655.7538001128
7	39802	21.1	1655.7538001128
7	40125	21.2	1655.7538001128
7	40448	21.3	1655.7538001128
7	40771	21.4	1655.7538001128
7	41094	21.5	1655.7538001128
7	41417	21.6	1655.7538001128
7	41740	21.7	1655.7538001128
7	42063	21.8	1655.7538001128
7	42386	21.9	1655.7538001128
7	42711	22	1655.7538001128
7	43034	22.1	1655.7538001128
7	43357	22.2	1655.7538001128
7	43680	22.3	1655.7538001128
7	44003	22.4	1655.7538001128
7	44326	22.5	1655.7538001128
7	44649	22.6	1655.7538001128
7	44972	22.7	1655.7538001128
7	45295	22.8	1655.7538001128
7	45999	22.9	1655.7538001128
7	46324	23	1655.7538001128
7	46647	23.1	1655.7538001128
7	46970	23.2	1655.7538001128
7	47293	23.3	1655.7538001128
7	47616	23.4	1655.7538001128
7	48033	23.5	1655.7538001128
7	48451	23.6	1655.7538001128
7	48869	23.7	1655.7538001128
7	49287	23.8	1655.7538001128
7	49750	23.9	1655.7538001128
7	50170	24	1655.7538001128
7	50588	24.1	1655.7538001128
7	51006	24.2	1655.7538001128
7	51424	24.3	1655.7538001128
7	51842	24.4	1655.7538001128
7	52260	24.5	1655.7538001128
7	52678	24.6	1655.7538001128
7	53096	24.7	1655.7538001128
7	53514	24.8	1655.7538001128
7	53932	24.9	1655.7538001128
7	54352	25	1655.7538001128
7	54770	25.1	1655.7538001128
7	55188	25.2	1655.7538001128
7	55606	25.3	1655.7538001128
7	56024	25.4	1655.7538001128
7	56442	25.5	1655.7538001128
7	56860	25.6	1655.7538001128
7	57278	25.7	1655.7538001128
7	57696	25.8	1655.7538001128
7	58114	25.9	1655.7538001128
7	58534	26	1655.7538001128
7	58952	26.1	1655.7538001128
7	59370	26.2	1655.7538001128
7	59788	26.3	1655.7538001128
7	60206	26.4	1655.7538001128
7	60624	26.5	1655.7538001128
7	61042	26.6	1655.7538001128
7	61460	26.7	1655.7538001128
7	61878	26.8	1655.7538001128
7	62296	26.9	1655.7538001128
7	62716	27	1655.7538001128
7	63134	27.1	1655.7538001128
7	63552	27.2	1655.7538001128
7	63970	27.3	1655.7538001128
7	64388	27.4	1655.7538001128
7	64806	27.5	1655.7538001128
7	65224	27.6	1655.7538001128
7	65642	27.7	1655.7538001128
7	66060	27.8	1655.7538001128
7	66478	27.9	1655.7538001128
7	66898	28	1655.7538001128
7	67316	28.1	1655.7538001128
7	67734	28.2	1655.7538001128
7	68152	28.3	1655.7538001128
7	68570	28.4	1655.7538001128
7	68988	28.5	1655.7538001128
7	69406	28.6	1655.7538001128
7	69824	28.7	1655.7538001128
7	70242	28.8	1655.7538001128
7	70660	28.9	1655.7538001128
7	71080	29	1655.7538001128
7	71498	29.1	1655.7538001128
7	71916	29.2	1655.7538001128
7	72334	29.3	1655.7538001128
7	72752	29.4	1655.7538001128
7	73170	29.5	1655.7538001128
7	73588	29.6	1655.7538001128
7	74006	29.7	1655.7538001128
7	74424	29.8	1655.7538001128
7	74842	29.9	1655.7538001128
7	75262	30	1655.7538001128
7	75786	30.1	1655.7538001128
7	76311	30.2	1655.7538001128
7	76836	30.3	1655.7538001128
7	77361	30.4	1655.7538001128
7	77886	30.5	1655.7538001128
7	78411	30.6	1655.7538001128
7	78936	30.7	1655.7538001128
7	79461	30.8	1655.7538001128
7	79986	30.9	1655.7538001128
7	80513	31	1655.7538001128
7	81038	31.1	1655.7538001128
7	81563	31.2	1655.7538001128
7	82088	31.3	1655.7538001128
7	82613	31.4	1655.7538001128
7	83138	31.5	1655.7538001128
7	83663	31.6	1655.7538001128
7	84188	31.7	1655.7538001128
7	84713	31.8	1655.7538001128
7	85238	31.9	1655.7538001128
7	85765	32	1655.7538001128
7	86290	32.1	1655.7538001128
7	86815	32.2	1655.7538001128
7	87340	32.3	1655.7538001128
7	87865	32.4	1655.7538001128
7	88390	32.5	1655.7538001128
7	88915	32.6	1655.7538001128
7	89440	32.7	1655.7538001128
7	89965	32.8	1655.7538001128
7	90490	32.9	1655.7538001128
7	91017	33	1655.7538001128
7	91542	33.1	1655.7538001128
7	92067	33.2	1655.7538001128
7	92592	33.3	1655.7538001128
7	93117	33.4	1655.7538001128
7	93642	33.5	1655.7538001128
7	94167	33.6	1655.7538001128
7	94692	33.7	1655.7538001128
7	95217	33.8	1655.7538001128
7	95742	33.9	1655.7538001128
7	96269	34	1655.7538001128
7	96794	34.1	1655.7538001128
7	97319	34.2	1655.7538001128
7	97844	34.3	1655.7538001128
7	98369	34.4	1655.7538001128
7	98894	34.5	1655.7538001128
7	99419	34.6	1655.7538001128
7	99944	34.7	1655.7538001128
7	100469	34.8	1655.7538001128
7	100994	34.9	1655.7538001128
7	101521	35	1655.7538001128
7	102046	35.1	1655.7538001128
7	102571	35.2	1655.7538001128
7	103096	35.3	1655.7538001128
7	103621	35.4	1655.7538001128
7	104146	35.5	1655.7538001128
7	104671	35.6	1655.7538001128
7	105196	35.7	1655.7538001128
7	105721	35.8	1655.7538001128
7	106246	35.9	1655.7538001128
7	106773	36	1655.7538001128
7	107298	36.1	1655.7538001128
7	107823	36.2	1655.7538001128
7	108348	36.3	1655.7538001128
7	108873	36.4	1655.7538001128
7	109398	36.5	1655.7538001128
7	109923	36.6	1655.7538001128
7	110566	36.7	1655.7538001128
7	111210	36.8	1655.7538001128
7	111854	36.9	1655.7538001128
7	112500	37	1655.7538001128
7	113144	37.1	1655.7538001128
7	113788	37.2	1655.7538001128
7	114432	37.3	1655.7538001128
7	115076	37.4	1655.7538001128
7	115720	37.5	1655.7538001128
7	116364	37.6	1655.7538001128
7	117008	37.7	1655.7538001128
7	117652	37.8	1655.7538001128
7	118296	37.9	1655.7538001128
7	118942	38	1655.7538001128
7	119586	38.1	1655.7538001128
7	120230	38.2	1655.7538001128
7	120874	38.3	1655.7538001128
7	121518	38.4	1655.7538001128
7	122162	38.5	1655.7538001128
7	122806	38.6	1655.7538001128
7	123450	38.7	1655.7538001128
7	124094	38.8	1655.7538001128
7	124738	38.9	1655.7538001128
7	125384	39	1655.7538001128
7	126028	39.1	1655.7538001128
7	126672	39.2	1655.7538001128
7	127316	39.3	1655.7538001128
7	127960	39.4	1655.7538001128
7	128604	39.5	1655.7538001128
7	129248	39.6	1655.7538001128
7	129892	39.7	1655.7538001128
7	130536	39.8	1655.7538001128
7	131180	39.9	1655.7538001128
7	131826	40	1655.7538001128
7	132471	40.1	1655.7538001128
7	133115	40.2	1655.7741026897
7	133759	40.3	1655.8134529917
7	134403	40.4	1655.8722959692
7	135047	40.5	1655.9512149459
7	135691	40.6	1656.0476621352
7	136335	40.7	1656.1620513527
7	136979	40.8	1656.2959020762
7	137623	40.9	1656.4692008002
7	138269	41	1656.6812844109
7	138913	41.1	1656.9146474553
7	139557	41.2	1657.1695111981
7	140201	41.3	1657.445150733
7	140845	41.4	1657.7445971463
7	141489	41.5	1658.0586586194
7	142133	41.6	1658.3884463515
7	142777	41.7	1658.7335255556
7	143421	41.8	1659.0928929988
7	144065	41.9	1659.4653118169
7	144711	42	1659.8600363703
7	145355	42.1	1660.2780255089
7	145999	42.2	1660.7136537116
7	146643	42.3	1661.1741254581
7	147287	42.4	1661.6576677179
7	147931	42.5	1662.1543958038
7	148575	42.6	1662.6640882622
7	149219	42.7	1663.1894053798
7	149863	42.8	1663.7276374418
7	150507	42.9	1664.2804681454
7	151153	43	1664.8518014895
7	151797	43.1	1665.4436304756
7	152441	43.2	1666.0540728001
7	153215	43.3	1666.6897882866
7	153990	43.4	1667.342904835
7	154765	43.5	1668.006085529
7	155540	43.6	1668.6847340716
7	156315	43.7	1669.3616918866
7	157090	43.8	1670.0156310573
7	157865	43.9	1670.6851943908
7	158642	44	1671.3165768413
7	159417	44.1	1671.893651817
7	160192	44.2	1672.4859498153
7	160967	44.3	1673.0262988033
7	161742	44.4	1673.5576540381
7	162517	44.5	1674.1019664463
7	163292	44.6	1674.6559970053
7	164067	44.7	1675.2201027712
7	164842	44.8	1675.7960672313
7	165617	44.9	1676.381856109
7	166394	45	1676.9774291907
7	167169	45.1	1677.5854150811
7	167944	45.2	1678.2062154151
7	168719	45.3	1678.838922767
7	169494	45.4	1679.4856273709
7	170269	45.5	1680.1795404628
7	171044	45.6	1680.9021746777
7	171819	45.7	1681.6387734422
7	172594	45.8	1682.3904648321
7	173369	45.9	1683.1588718556
7	174146	46	1683.9372021072
7	174921	46.1	1684.7323800521
7	175696	46.2	1685.5392493494
7	176471	46.3	1686.3613878367
7	177246	46.4	1687.1979818949
7	178021	46.5	1688.0456342669
7	178796	46.6	1688.9103141455
7	179571	46.7	1689.7901016427
7	180346	46.8	1690.679542968
7	181121	46.9	1691.5795588922
7	181898	47	1692.4956200151
7	182673	47.1	1693.4217889672
7	183448	47.2	1694.0685543157
7	184223	47.3	1694.2720315652
7	184998	47.4	1694.4769022809
7	185773	47.5	1694.6803881545
7	186548	47.6	1694.8849930847
7	187323	47.7	1695.0887732143
7	188098	47.8	1695.2925284579
7	188873	47.9	1695.4976466699
7	189650	48	1695.7020390145
7	190425	48.1	1695.9059112808
7	191200	48.2	1696.1099328147
7	191975	48.3	1696.3134923279
7	192750	48.4	1696.4904640205
7	193525	48.5	1696.6540297838
7	194300	48.6	1696.8174945004
7	195075	48.7	1696.980183173
7	195850	48.8	1697.1434942661
7	196625	48.9	1697.3070457168
7	197402	49	1697.4706417546
7	198177	49.1	1697.6065851292
7	198952	49.2	1697.7361317528
7	199727	49.3	1697.8656544965
7	200502	49.4	1697.9961582255
7	201277	49.5	1698.1257826788
7	202052	49.6	1698.2528220126
7	202827	49.7	1698.3769901311
7	203602	49.8	1698.4982620897
7	204519	49.9	1698.6168166101
7	205439	50	1698.7314027315
7	206357	50.1	1698.8435701346
7	207275	50.2	1698.952290481
7	208193	50.3	1699.0570756542
7	209111	50.4	1699.1587689817
7	210029	50.5	1699.2573905727
7	210947	50.6	1699.3530330528
7	211865	50.7	1699.4460341539
7	212783	50.8	1699.5360319149
7	213701	50.9	1699.6229470791
7	214621	51	1699.7079077056
7	215539	51.1	1699.7899973085
7	216457	51.2	1699.8685862096
7	217375	51.3	1699.9440643592
7	218293	51.4	1700.016587642
7	219211	51.5	1700.0864689406
7	220129	51.6	1700.1542463871
7	221047	51.7	1700.2191232014
7	221965	51.8	1700.2818780253
7	222883	51.9	1700.3421035791
7	223803	52	1700.3997791139
7	224721	52.1	1700.4547899729
7	225639	52.2	1700.5064034499
7	226557	52.3	1700.556521384
7	227475	52.4	1700.6040871218
7	228393	52.5	1700.6492721168
7	229311	52.6	1700.6917933384
7	230229	52.7	1700.7324987063
7	231147	52.8	1700.7711581578
7	232065	52.9	1700.8076658109
7	232985	53	1700.8416279377
7	233903	53.1	1700.8724872451
7	234821	53.2	1700.8939007614
7	235739	53.3	1700.9168171957
7	236657	53.4	1700.94123655
7	237575	53.5	1700.9671588233
7	238493	53.6	1700.9945840165
7	239411	53.7	1701.0235121287
7	240329	53.8	1701.05394316
7	241247	53.9	1701.0858771103
7	242167	54	1701.1193139805
7	243085	54.1	1701.1962045543
7	244003	54.2	1701.2962188749
7	244921	54.3	1701.4132445902
7	245839	54.4	1701.7030610768
7	246757	54.5	1702.0151335318
7	247675	54.6	1702.530355975
7	248593	54.7	1703.1144951321
7	249511	54.8	1703.8155889204
7	250429	54.9	1704.5514428308
7	251349	55	1705.3148647994
7	252267	55.1	1706.0969282622
7	253185	55.2	1706.8943023616
7	254103	55.3	1707.7133339159
7	255021	55.4	1708.5463678511
7	255939	55.5	1709.4039158309
7	256857	55.6	1710.2858306682
7	257775	55.7	1711.1875696806
7	258693	55.8	1712.1102533964
7	259611	55.9	1713.0518012661
7	260531	56	1714.0084011313
7	261449	56.1	1714.9877856793
7	262367	56.2	1715.9871088611
7	263285	56.3	1717.0000356603
7	264357	56.4	1718.0353707066
7	265430	56.5	1719.0955187548
7	266503	56.6	1720.1740792673
7	267576	56.7	1721.2775334595
7	268649	56.8	1722.3993133307
7	269722	56.9	1723.5439688424
7	270797	57	1724.7108809687
7	271870	57.1	1725.8941622078
7	272943	57.2	1727.0957241142
7	274016	57.3	1728.3181090085
7	275089	57.4	1729.55584927
7	276162	57.5	1730.818477273
7	277235	57.6	1732.1031117318
7	278308	57.7	1733.4101988534
7	279381	57.8	1734.7415108187
7	280454	57.9	1736.0921349395
7	281529	58	1737.461798762
7	282602	58.1	1738.8509112848
7	283675	58.2	1740.2583366791
7	284748	58.3	1741.6867648484
7	285821	58.4	1743.1377338804
7	286894	58.5	1744.6089215809
7	287967	58.6	1746.0933849821
7	289040	58.7	1747.6011922592
7	290113	58.8	1749.1305131717
7	291186	58.9	1750.6802798286
7	292261	59	1752.2549585951
7	293334	59.1	1753.8452390665
7	294407	59.2	1755.4584232373
7	295480	59.3	1757.0980160115
7	296553	59.4	1758.749929796
7	297626	59.5	1760.4058168205
7	298699	59.6	1762.0688708182
7	299772	59.7	1763.7228196813
7	300846	59.8	1765.3852847554
7	301919	59.9	1767.0489091398
7	302994	60	1768.7085008053
7	304067	60.1	1770.3661495568
7	305140	60.2	1772.0222141836
7	306213	60.3	1773.679405963
7	307286	60.4	1775.3389891684
7	308359	60.5	1776.9931286406
7	309432	60.6	1778.6442042002
7	310505	60.7	1780.2961826911
7	311578	60.8	1781.9477710743
7	312651	60.9	1783.6017096238
7	313726	61	1785.2548244391
7	314799	61.1	1786.9124626806
7	315872	61.2	1788.5647216188
7	316945	61.3	1790.2250559153
7	318018	61.4	1791.875091644
7	319091	61.5	1793.5335428435
7	320164	61.6	1795.1920838933
7	321237	61.7	1796.8513670526
7	322310	61.8	1798.5095309261
7	323383	61.9	1800.1646292284
7	324458	62	1801.8164505363
7	325531	62.1	1803.4725230243
7	326604	62.2	1805.1241837488
7	327677	62.3	1806.7832397725
7	328750	62.4	1808.4384515351
7	329823	62.5	1810.0989276199
7	330896	62.6	1811.7581863329
7	331969	62.7	1813.4175468422
7	333042	62.8	1815.077223639
7	334115	62.9	1816.7323885476
7	335190	63	1818.3937032465
7	336263	63.1	1820.0468809064
7	337336	63.2	1821.7064735629
7	338409	63.3	1823.3629698353
7	339482	63.4	1825.023177159
7	340555	63.5	1826.6750254314
7	341628	63.6	1828.3307609325
7	342701	63.7	1829.992989934
7	343774	63.8	1831.6512146899
7	344847	63.9	1833.3039337741
7	345922	64	1834.9661002941
7	346995	64.1	1836.623415146
7	348068	64.2	1838.2753888145
7	349141	64.3	1839.9368271278
7	350214	64.4	1841.5939179808
7	351287	64.5	1843.248901533
7	352360	64.6	1844.906622461
7	353433	64.7	1846.5623112274
7	354506	64.8	1848.2176912138
7	355579	64.9	1849.8731369721
7	356654	65	1851.5351976473
7	357727	65.1	1853.1884277919
7	358800	65.2	1854.8428314235
7	359873	65.3	1856.4956401549
7	360946	65.4	1858.151369147
7	362019	65.5	1859.8115163306
7	363092	65.6	1861.4712547846
7	364165	65.7	1863.1263433928
7	365238	65.8	1864.7874041833
7	366311	65.9	1866.4420464085
7	367386	66	1868.0919218212
7	368459	66.1	1869.7477193279
7	369532	66.2	1871.4062564811
7	370605	66.3	1873.0636135759
7	371678	66.4	1874.7251953445
7	372751	66.5	1876.3773542466
7	373824	66.6	1878.0354930721
7	374897	66.7	1879.6865782607
7	375970	66.8	1881.3399302671
7	377043	66.9	1882.9936637236
7	378118	67	1884.6459579775
7	379191	67.1	1886.3026814703
7	380264	67.2	1887.9547068588
7	381337	67.3	1889.6078467378
7	382410	67.4	1891.2605543332
7	383483	67.5	1892.9108104324
7	384556	67.6	1894.5695329672
7	385629	67.7	1896.2320149401
7	386702	67.8	1897.8861827524
7	387775	67.9	1899.5462213056
7	388850	68	1901.1986328447
7	389923	68.1	1902.8562127799
7	390996	68.2	1904.5150567442
7	392069	68.3	1906.1731010424
7	393142	68.4	1907.8300873758
7	394215	68.5	1909.4840857396
7	395288	68.6	1911.1378091052
7	396361	68.7	1912.7994817561
7	397434	68.8	1914.4557602452
7	398507	68.9	1916.1162233911
7	399582	69	1917.7764493469
7	400655	69.1	1919.4375565611
7	401728	69.2	1921.0917999865
7	402801	69.3	1922.741456314
7	403874	69.4	1924.4023379479
7	404947	69.5	1926.0572601492
7	406020	69.6	1927.7132640844
7	407093	69.7	1929.3703557756
7	408682	69.8	1931.0250334134
7	409755	69.9	1932.6800514683
7	410830	70	1934.3327941829
7	411903	70.1	1935.9849684788
7	412976	70.2	1937.644241116
7	414049	70.3	1939.3020716999
7	415122	70.4	1940.9594135126
7	416195	70.5	1942.6146552637
7	417268	70.6	1944.2707976857
7	418341	70.7	1945.9299204098
7	419492	70.8	1947.589469254
7	420565	70.9	1949.2416904541
7	421640	71	1950.8908123886
7	422713	71.1	1952.5401897253
7	423786	71.2	1954.2009748397
7	424859	71.3	1955.8601471903
7	425932	71.4	1957.5114536984
7	427005	71.5	1959.1696876064
7	428078	71.6	1960.8191618556
7	429151	71.7	1962.4715511333
7	430224	71.8	1964.1289366977
7	431297	71.9	1965.7892473368
7	432372	72	1967.4477231139
7	433445	72.1	1969.1014103331
7	434518	72.2	1970.7629959881
7	435591	72.3	1972.4189228499
7	436664	72.4	1974.072061006
7	437737	72.5	1975.7232513819
7	438810	72.6	1977.3811347475
7	439883	72.7	1979.0415485855
7	440956	72.8	1980.7017186088
7	442029	72.9	1982.3617417226
7	443104	73	1984.0130539909
7	444177	73.1	1985.6641471134
7	445250	73.2	1987.3169068322
7	446323	73.3	1988.9713320564
7	447396	73.4	1990.6208160063
7	448469	73.5	1992.2743439199
7	449542	73.6	1993.9352710349
7	450615	73.7	1995.5913926279
7	451688	73.8	1997.2491915086
7	452761	73.9	1998.899026433
7	453836	74	2000.5517620211
7	454909	74.1	2002.2126733623
7	455982	74.2	2003.8707801746
7	457055	74.3	2005.5259275474
7	458128	74.4	2007.1823579771
7	459201	74.5	2008.8345039571
7	460274	74.6	2010.490860478
7	461347	74.7	2012.1492703808
7	462420	74.8	2013.7997916555
7	463493	74.9	2015.4604830621
7	464568	75	2017.1118840482
7	465641	75.1	2018.7645950103
7	466714	75.2	2020.4133510655
7	467787	75.3	2022.0729419952
7	468860	75.4	2023.732285439
7	469933	75.5	2025.3841531537
7	471006	75.6	2027.0399013795
7	472079	75.7	2028.6908157403
7	473152	75.8	2030.3508897731
7	474225	75.9	2032.0004089978
7	475300	76	2033.6546338219
7	476373	76.1	2035.3071747832
7	477446	76.2	2036.9676556308
7	478519	76.3	2038.622104059
7	479592	76.4	2040.2815481545
7	480665	76.5	2041.9396627909
7	481738	76.6	2043.5940117128
7	482811	76.7	2045.2436647024
7	483884	76.8	2046.8975522202
7	484957	76.9	2048.5590617014
7	486032	77	2050.2121810252
7	487105	77.1	2051.8691026783
7	488178	77.2	2053.527192641
7	489251	77.3	2055.1854983037
7	490324	77.4	2056.846504244
7	491397	77.5	2058.5095312288
7	492470	77.6	2060.1605805885
7	493543	77.7	2061.8183787977
7	494616	77.8	2063.4789954051
7	495689	77.9	2065.1298049614
7	496764	78	2066.7872730903
7	497837	78.1	2068.4420693424
7	498910	78.2	2070.1044820324
7	499983	78.3	2071.7561811432
7	501056	78.4	2073.4148283647
7	502129	78.5	2075.0767647643
7	503202	78.6	2076.7300052475
7	504275	78.7	2078.3873587688
7	505348	78.8	2080.0474798754
7	506421	78.9	2081.6978715817
7	507496	79	2083.3507817956
7	508569	79.1	2085.0272789253
7	509642	79.2	2086.7209441252
7	510715	79.3	2088.431829351
7	511788	79.4	2090.1562789511
7	512861	79.5	2091.8940126896
7	513934	79.6	2093.642583197
7	515007	79.7	2095.4017785154
7	516080	79.8	2097.1739776246
7	517153	79.9	2098.9679353042
7	518228	80	2100.7815851439
7	519301	80.1	2102.4143114993
7	520374	80.2	2104.0303384662
7	521447	80.3	2105.667537679
7	522520	80.4	2107.3247802174
7	523593	80.5	2108.8983580945
7	524666	80.6	2110.4238778427
7	525739	80.7	2111.9659559764
7	526812	80.8	2113.1778385062
7	527885	80.9	2114.2689414639
7	528960	81	2115.3675265396
7	530033	81.1	2116.4304871345
7	531106	81.2	2117.2842460349
7	532179	81.3	2118.1456782315
7	533252	81.4	2119.0129626663
7	534325	81.5	2119.7419973407
7	535398	81.6	2120.2189166248
7	536471	81.7	2120.6998815425
7	537544	81.8	2120.9372278461
7	538617	81.9	2120.8623983273
7	539692	82	2120.7876496799
7	540765	82.1	2120.7130093556
7	541838	82.2	2120.6383121619
7	542911	82.3	2120.5633509643
7	543984	82.4	2120.4885331979
7	545057	82.5	2120.4137730971
7	546130	82.6	2120.3389279498
7	547203	82.7	2120.2640262097
7	548276	82.8	2120.1892567016
7	549349	82.9	2120.1143131638
7	550424	83	2120.0394377802
7	551497	83.1	2119.9647000497
7	552570	83.2	2119.8897767579
7	553643	83.3	2119.8150183568
7	554716	83.4	2119.7401905907
7	555789	83.5	2119.665604081
7	556862	83.6	2119.5908249309
7	557935	83.7	2119.5158910798
7	559008	83.8	2119.4411116438
7	560081	83.9	2119.3661913173
7	561156	84	2119.2912813351
7	562229	84.1	2119.2166548157
7	563302	84.2	2119.1420168234
7	564375	84.3	2119.0672527179
7	565448	84.4	2118.9926603409
7	566521	84.5	2118.918050047
7	567594	84.6	2118.8431063825
7	568667	84.7	2118.7682712255
7	569740	84.8	2118.6936678644
7	570813	84.9	2118.6189094521
7	571888	85	2118.5439416245
7	572961	85.1	2118.4692461016
7	574034	85.2	2118.3945937669
7	575107	85.3	2118.3198588537
7	576180	85.4	2118.2449434875
7	577253	85.5	2118.1700330554
7	578326	85.6	2118.0951762488
7	579399	85.7	2118.0203533815
7	580472	85.8	2117.9456444895
7	581545	85.9	2117.8709333297
7	582620	86	2117.7960607009
7	583693	86.1	2117.7211959716
7	584766	86.2	2117.6466185227
7	585839	86.3	2117.5718429964
7	586912	86.4	2117.4969271971
7	587985	86.5	2117.4220683929
7	589058	86.6	2117.3472341858
7	590131	86.7	2117.2726268116
7	591204	86.8	2117.1976484153
7	592277	86.9	2117.1226610178
7	593352	87	2117.0478818556
7	594425	87.1	2116.9730225503
7	595498	87.2	2116.898312089
7	596571	87.3	2116.8237194773
7	597644	87.4	2116.7487803688
7	598717	87.5	2116.6738534784
7	599790	87.6	2116.5989494352
7	600863	87.7	2116.5240358552
7	601936	87.8	2116.4494268885
7	603009	87.9	2116.374686731
7	604084	88	2116.3000668734
7	605157	88.1	2116.2252052026
7	606230	88.2	2116.1505692331
7	607303	88.3	2116.0756933484
7	608376	88.4	2116.0007686773
7	609449	88.5	2115.9258234343
7	610522	88.6	2115.8509549256
7	611595	88.7	2115.776000198
7	612668	88.8	2115.701196569
7	613741	88.9	2115.6265673628
7	614816	89	2115.5517867273
7	615889	89.1	2115.4041975792
7	616962	89.2	2115.0929082623
7	618035	89.3	2114.7820795681
7	619108	89.4	2114.4710991532
7	620181	89.5	2114.160109045
7	621254	89.6	2113.8483756473
7	622327	89.7	2113.5373182334
7	623401	89.8	2113.2256633472
7	624474	89.9	2112.9146206956
7	625549	90	2112.6030864101
7	626622	90.1	2112.2926258268
7	627695	90.2	2111.981288597
7	628768	90.3	2111.6711147381
7	629841	90.4	2111.3606749699
7	630914	90.5	2111.0380311524
7	631987	90.6	2110.3262288719
7	633060	90.7	2109.6134537123
7	634133	90.8	2108.8998618238
7	635206	90.9	2108.1898421682
7	636281	91	2107.4833954116
7	637354	91.1	2106.7877054531
7	638427	91.2	2106.1049358444
7	639500	91.3	2105.4366195155
7	640573	91.4	2104.7780076396
7	641646	91.5	2104.1311238203
7	642719	91.6	2103.4986932809
7	643792	91.7	2102.8773895008
7	644865	91.8	2102.2659189701
7	645938	91.9	2101.6663923133
7	647179	92	2101.0789569216
7	648419	92.1	2100.5056410218
7	649659	92.2	2099.9450229099
7	650899	92.3	2099.3936651247
7	652139	92.4	2098.8555868501
7	653379	92.5	2098.3284613891
7	654619	92.6	2097.5642589331
7	655859	92.7	2096.7646677233
7	657099	92.8	2095.9856116259
7	658339	92.9	2095.227465
7	659581	93	2094.4871500218
7	660821	93.1	2093.7645531204
7	662061	93.2	2093.0558058834
7	663301	93.3	2092.3643417638
7	664541	93.4	2091.6896478897
7	665781	93.5	2091.0327095427
7	667021	93.6	2090.3971763002
7	668261	93.7	2089.7789015295
7	669501	93.8	2089.1763700927
7	670741	93.9	2088.5920504807
7	671983	94	2088.0203292482
7	673223	94.1	2087.4680626001
7	674463	94.2	2086.9333395045
7	675703	94.3	2086.4104800755
7	676943	94.4	2085.9086109353
7	678183	94.5	2085.4201244153
7	679423	94.6	2084.9464299604
7	680841	94.7	2084.4863110092
7	682260	94.8	2084.0437914804
7	683679	94.9	2083.6177707165
7	685100	95	2083.2038826831
7	686519	95.1	2082.8106226455
7	687938	95.2	2082.4267725628
7	689357	95.3	2082.0632842761
7	690776	95.4	2081.7084377604
7	692195	95.5	2081.3707418172
7	693614	95.6	2081.0462214416
7	695033	95.7	2080.7333210222
7	696452	95.8	2080.4364827601
7	697871	95.9	2080.1543645402
7	699292	96	2079.8843391165
7	700711	96.1	2079.6246612389
7	702130	96.2	2079.3815327594
7	703549	96.3	2079.1457682345
7	704968	96.4	2078.9220784493
7	706387	96.5	2078.7108915187
7	707806	96.6	2078.5109803947
7	709225	96.7	2078.3223719997
7	710644	96.8	2078.1496329485
7	712063	96.9	2077.9637039034
7	713484	97	2077.7645848645
7	714903	97.1	2077.5522758309
7	716322	97.2	2077.3267768035
7	717741	97.3	2077.0880877813
7	719350	97.4	2076.8362087654
7	720960	97.5	2076.5711397547
7	722570	97.6	2076.2928807503
7	724180	97.7	2076.001431752
7	725790	97.8	2075.663453633
7	727400	97.9	2075.2800147692
7	729012	98	2074.8875907604
7	730622	98.1	2074.4808306945
7	732232	98.2	2074.0623465534
7	733842	98.3	2073.6103361202
7	735452	98.4	2073.091286256
7	737062	98.5	2072.5559318885
7	738672	98.6	2072.0091257235
7	740282	98.7	2071.4484471781
7	741892	98.8	2070.8742935546
7	743502	98.9	2070.2835214892
7	745114	99	2069.6779509606
7	746724	99.1	2069.061010262
7	748334	99.2	2068.427616504
7	749944	99.3	2067.7819802854
7	751554	99.4	2067.1257021204
7	753164	99.5	2066.4525653832
7	754774	99.6	2065.7615154032
7	756384	99.7	2065.0536183901
7	757994	99.8	2064.3350237571
7	759604	99.9	2063.6021586973
7	761418	100	2062.8592366967
7	763231	100.1	2062.1055417759
7	765044	100.2	2061.3405778082
7	766857	100.3	2060.5567625966
7	768670	100.4	2059.7618794115
7	770483	100.5	2058.9513115156
7	772296	100.6	2058.1261492334
7	774109	100.7	2057.2842870466
7	775922	100.8	2056.4301414033
7	777735	100.9	2055.5588490814
7	779550	101	2054.6765390486
8	33	0.2	0.25286542447004
8	61	0.3	0.49766294917859
8	89	0.4	0.73056932500431
8	117	0.5	0.94875413759194
8	145	0.6	1.1723245016953
8	173	0.7	1.3708816750736
8	201	0.8	1.5864496756212
8	229	0.9	1.7682292908497
8	259	1	1.985265837447
8	287	1.1	2.1752625241973
8	315	1.2	2.3566164375431
8	343	1.3	2.5666468154741
8	371	1.4	2.769760478177
8	399	1.5	2.9910809794938
8	427	1.6	3.1351504892655
8	455	1.7	3.3877778024212
8	483	1.8	3.5225016430937
8	511	1.9	3.7470563248065
8	541	2	3.9572089270348
8	569	2.1	4.1551124625196
8	597	2.2	4.3121882081739
8	625	2.3	4.4666062737335
8	653	2.4	4.6578499339343
8	681	2.5	4.855452901652
8	709	2.6	5.0416071083638
8	737	2.7	5.2505450852527
8	765	2.8	5.3902175229331
8	827	2.9	5.5415272829853
8	892	3	5.7576657819733
8	1001	3.1	5.9334034380209
8	1111	3.2	6.0851628584516
8	1221	3.3	6.3269172573867
8	1331	3.4	6.4596968728103
8	1441	3.5	6.6155784749854
8	1551	3.6	6.7741096821506
8	1661	3.7	6.9404274374441
8	1771	3.8	7.181791510329
8	1881	3.9	7.3431714796726
8	1993	4	7.5492654273272
8	2103	4.1	7.7850422225366
8	2213	4.2	7.985742678862
8	2323	4.3	8.2281643163375
8	2433	4.4	8.407871701227
8	2543	4.5	8.6389699211097
8	2653	4.6	8.776282671323
8	2763	4.7	8.97778917268
8	2873	4.8	9.1809750188337
8	2983	4.9	9.4280685731335
8	3095	5	9.6013889006674
8	3205	5.1	9.8391706544705
8	3315	5.2	10.082410235685
8	3425	5.3	10.263392249014
8	3535	5.4	10.44926666814
8	3645	5.5	10.62681104123
8	3755	5.6	10.873545216344
8	3865	5.7	11.050987562326
8	3975	5.8	11.226083480458
8	4085	5.9	11.432215564017
8	4197	6	11.66044023757
8	4307	6.1	11.876499247293
8	4417	6.2	12.051176400334
8	4527	6.3	12.20999148771
8	4637	6.4	12.422057216166
8	4747	6.5	12.680292902722
8	4857	6.6	12.831360064855
8	4967	6.7	12.965007214992
8	5077	6.8	13.164082559211
8	5187	6.9	13.416839649131
8	5299	7	13.580735383556
8	5409	7.1	13.783312963765
8	5519	7.2	13.874374446603
8	5629	7.3	13.827483840289
8	5739	7.4	13.848662187471
8	5849	7.5	13.770629388527
8	5959	7.6	13.799978624485
8	6069	7.7	13.777536666682
8	6179	7.8	13.82197775312
8	6289	7.9	13.77024951044
8	6401	8	13.769191494281
8	6511	8.1	13.888783628773
8	6621	8.2	13.872866277939
8	6731	8.3	13.780619804119
8	6841	8.4	13.866185122749
8	6951	8.5	13.818133207059
8	7061	8.6	13.782237796318
8	7171	8.7	13.870962570775
8	7339	8.8	13.854898964076
8	7508	8.9	13.764915489161
8	7679	9	13.815099546334
8	7848	9.1	13.815607252805
8	8017	9.2	13.766142628798
8	8186	9.3	13.779966873406
8	8355	9.4	13.851333196284
8	8524	9.5	13.838454253951
8	8693	9.6	13.814434526134
8	8932	9.7	13.799970893103
8	9172	9.8	13.820683187281
8	9412	9.9	13.834898844287
8	9654	10	13.828882815507
8	9895	10.1	13.378882815507
8	10135	10.2	12.928882815507
8	10375	10.3	12.478882815507
8	10615	10.4	12.028882815507
8	10855	10.5	11.578882815507
8	11095	10.6	11.128882815507
8	11335	10.7	10.678882815507
8	11575	10.8	10.228882815507
8	11815	10.9	9.7788828155072
8	12057	11	9.3288828155072
8	12297	11.1	8.8788828155072
8	12537	11.2	8.4288828155072
8	12777	11.3	7.9788828155072
8	13017	11.4	7.5288828155072
8	13257	11.5	7.0788828155072
8	13497	11.6	6.6288828155072
8	13737	11.7	6.1788828155072
8	13977	11.8	5.7288828155072
8	14217	11.9	5.2788828155072
8	14459	12	4.8288828155072
8	14699	12.1	4.3788828155072
8	14939	12.2	3.9288828155072
8	15179	12.3	3.4788828155072
8	15419	12.4	3.0288828155072
8	15659	12.5	2.5788828155072
8	15899	12.6	2.1288828155072
8	16139	12.7	1.6788828155072
8	16379	12.8	1.2288828155072
8	16619	12.9	0.77888281550725
8	16861	13	0.32888281550725
8	17101	13.1	0
8	17341	13.2	0
8	17581	13.3	0
8	17821	13.4	0
8	18061	13.5	0
8	18301	13.6	0
8	18541	13.7	0
8	18781	13.8	0
8	19021	13.9	0
8	19263	14	0
8	19503	14.1	0
8	19743	14.2	0
8	19983	14.3	0
8	20223	14.4	0
8	20463	14.5	0
8	20703	14.6	0
8	20943	14.7	0
8	21183	14.8	0
8	21423	14.9	0
8	21665	15	0
8	21905	15.1	0
8	22145	15.2	0
8	22385	15.3	0
8	22625	15.4	0
8	22865	15.5	0
8	23105	15.6	0
8	23345	15.7	0
8	23585	15.8	0
8	23825	15.9	0
8	24067	16	0
8	24307	16.1	0
8	24547	16.2	0
8	24787	16.3	0
8	25027	16.4	0
8	25267	16.5	0
8	25507	16.6	0
8	25747	16.7	0
8	25987	16.8	0
8	26227	16.9	0
8	26551	17	0
8	26874	17.1	0
8	27197	17.2	0
8	27520	17.3	0
8	27843	17.4	0
8	28166	17.5	0
8	28489	17.6	0
8	28812	17.7	0
8	29135	17.8	0
8	29458	17.9	0
8	29783	18	0
8	30106	18.1	0
8	30429	18.2	0
8	30752	18.3	0
8	31075	18.4	0
8	31398	18.5	0
8	31721	18.6	0
8	32044	18.7	0
8	32367	18.8	0
8	32690	18.9	0
8	33015	19	0
8	33338	19.1	0
8	33661	19.2	0
8	33984	19.3	0
8	34307	19.4	0
8	34630	19.5	0
8	34953	19.6	0
8	35276	19.7	0
8	35599	19.8	0
8	35922	19.9	0
8	36247	20	0
8	36570	20.1	0
8	36893	20.2	0
8	37216	20.3	0
8	37539	20.4	0
8	37862	20.5	0
8	38185	20.6	0
8	38508	20.7	0
8	38831	20.8	0
8	39154	20.9	0
8	39479	21	0
8	39802	21.1	0
8	40125	21.2	0
8	40448	21.3	0
8	40771	21.4	0
8	41094	21.5	0
8	41417	21.6	0
8	41740	21.7	0
8	42063	21.8	0
8	42386	21.9	0
8	42711	22	0
8	43034	22.1	0
8	43357	22.2	0
8	43680	22.3	0
8	44003	22.4	0
8	44326	22.5	0
8	44649	22.6	0
8	44972	22.7	0
8	45295	22.8	0
8	45999	22.9	0
8	46324	23	0
8	46647	23.1	0
8	46970	23.2	0
8	47293	23.3	0
8	47616	23.4	0
8	48033	23.5	0
8	48451	23.6	0
8	48869	23.7	0
8	49287	23.8	0
8	49750	23.9	0
8	50170	24	0
8	50588	24.1	0
8	51006	24.2	0
8	51424	24.3	0
8	51842	24.4	0
8	52260	24.5	0
8	52678	24.6	0
8	53096	24.7	0
8	53514	24.8	0
8	53932	24.9	0
8	54352	25	0
8	54770	25.1	0
8	55188	25.2	0
8	55606	25.3	0
8	56024	25.4	0
8	56442	25.5	0
8	56860	25.6	0
8	57278	25.7	0
8	57696	25.8	0
8	58114	25.9	0
8	58534	26	0
8	58952	26.1	0
8	59370	26.2	0
8	59788	26.3	0
8	60206	26.4	0
8	60624	26.5	0
8	61042	26.6	0
8	61460	26.7	0
8	61878	26.8	0
8	62296	26.9	0
8	62716	27	0
8	63134	27.1	0
8	63552	27.2	0
8	63970	27.3	0
8	64388	27.4	0
8	64806	27.5	0
8	65224	27.6	0
8	65642	27.7	0
8	66060	27.8	0
8	66478	27.9	0
8	66898	28	0
8	67316	28.1	0
8	67734	28.2	0
8	68152	28.3	0
8	68570	28.4	0
8	68988	28.5	0
8	69406	28.6	0
8	69824	28.7	0
8	70242	28.8	0
8	70660	28.9	0
8	71080	29	0
8	71498	29.1	0
8	71916	29.2	0
8	72334	29.3	0
8	72752	29.4	0
8	73170	29.5	0
8	73588	29.6	0
8	74006	29.7	0
8	74424	29.8	0
8	74842	29.9	0
8	75262	30	0
8	75786	30.1	0
8	76311	30.2	0
8	76836	30.3	0
8	77361	30.4	0
8	77886	30.5	0
8	78411	30.6	0
8	78936	30.7	0
8	79461	30.8	0
8	79986	30.9	0
8	80513	31	0
8	81038	31.1	0
8	81563	31.2	0
8	82088	31.3	0
8	82613	31.4	0
8	83138	31.5	0
8	83663	31.6	0
8	84188	31.7	0
8	84713	31.8	0
8	85238	31.9	0
8	85765	32	0
8	86290	32.1	0
8	86815	32.2	0
8	87340	32.3	0
8	87865	32.4	0
8	88390	32.5	0
8	88915	32.6	0
8	89440	32.7	0
8	89965	32.8	0
8	90490	32.9	0
8	91017	33	0
8	91542	33.1	0
8	92067	33.2	0
8	92592	33.3	0
8	93117	33.4	0
8	93642	33.5	0
8	94167	33.6	0
8	94692	33.7	0
8	95217	33.8	0
8	95742	33.9	0
8	96269	34	0
8	96794	34.1	0
8	97319	34.2	0
8	97844	34.3	0
8	98369	34.4	0
8	98894	34.5	0
8	99419	34.6	0
8	99944	34.7	0
8	100469	34.8	0
8	100994	34.9	0
8	101521	35	0
8	102046	35.1	0
8	102571	35.2	0
8	103096	35.3	0
8	103621	35.4	0
8	104146	35.5	0
8	104671	35.6	0
8	105196	35.7	0
8	105721	35.8	0
8	106246	35.9	0
8	106773	36	0
8	107298	36.1	0
8	107823	36.2	0
8	108348	36.3	0
8	108873	36.4	0
8	109398	36.5	0
8	109923	36.6	0
8	110566	36.7	0
8	111210	36.8	0
8	111854	36.9	0
8	112500	37	0
8	113144	37.1	0
8	113788	37.2	0
8	114432	37.3	0
8	115076	37.4	0
8	115720	37.5	0
8	116364	37.6	0
8	117008	37.7	0
8	117652	37.8	0
8	118296	37.9	0
8	118942	38	0
8	119586	38.1	0
8	120230	38.2	0
8	120874	38.3	0
8	121518	38.4	0
8	122162	38.5	0
8	122806	38.6	0
8	123450	38.7	0
8	124094	38.8	0
8	124738	38.9	0
8	125384	39	0
8	126028	39.1	0
8	126672	39.2	0
8	127316	39.3	0
8	127960	39.4	0
8	128604	39.5	0
8	129248	39.6	0
8	129892	39.7	0
8	130536	39.8	0
8	131180	39.9	0
8	131826	40	0
8	132471	40.1	0.25764080780488
8	133115	40.2	0.49935746076566
8	133759	40.3	0.74672057628714
8	134403	40.4	1.0014860901796
8	135047	40.5	1.2239200662044
8	135691	40.6	1.4516053668053
8	136335	40.7	1.69857293779
8	136979	40.8	1.92042497987
8	137623	40.9	2.1499893281745
8	138269	41	2.365708747817
8	138913	41.1	2.5836712356668
8	139557	41.2	2.7942850284383
8	140201	41.3	3.0356263146468
8	140845	41.4	3.1837859267008
8	141489	41.5	3.3432102508063
8	142133	41.6	3.4982269561233
8	142777	41.7	3.6430734318087
8	143421	41.8	3.7753812202776
8	144065	41.9	4.0015047471563
8	144711	42	4.2373485703615
8	145355	42.1	4.4161638987192
8	145999	42.2	4.6680143466021
8	146643	42.3	4.9018907743564
8	147287	42.4	5.0355615744728
8	147931	42.5	5.1669873973925
8	148575	42.6	5.3253817730525
8	149219	42.7	5.4563065032673
8	149863	42.8	5.6042996781261
8	150507	42.9	5.7444274726801
8	151153	43	5.9330774495949
8	151797	43.1	6.1196759122156
8	152441	43.2	6.3730390137516
8	153215	43.3	6.5832796654839
8	153990	43.4	6.7137904002366
8	154765	43.5	6.8703810521762
8	155540	43.6	7.0154142054694
8	156315	43.7	7.253647549114
8	157090	43.8	7.4129303591663
8	157865	43.9	7.6284568555362
8	158642	44	7.8826626108971
8	159417	44.1	8.0906043016969
8	160192	44.2	8.319726294385
8	160967	44.3	8.4563199068478
8	161742	44.4	8.662528477934
8	162517	44.5	8.817189207034
8	163292	44.6	8.9775323699636
8	164067	44.7	9.1662590529409
8	164842	44.8	9.3226109805971
8	165617	44.9	9.4783229289378
8	166394	45	9.6758681436174
8	167169	45.1	9.8798052117962
8	167944	45.2	10.069300952359
8	168719	45.3	10.292061992012
8	169494	45.4	10.531769216355
8	170269	45.5	10.788866113067
8	171044	45.6	10.997355630429
8	171819	45.7	11.222687206805
8	172594	45.8	11.472250178397
8	173369	45.9	11.620403109611
8	174146	46	11.871937706968
8	174921	46.1	12.046488575503
8	175696	46.2	12.274456273542
8	176471	46.3	12.490276678965
8	177246	46.4	12.655376353163
8	178021	46.5	12.909595533948
8	178796	46.6	13.135150977598
8	179571	46.7	13.279281796109
8	180346	46.8	13.437159641666
8	181121	46.9	13.676713057646
8	181898	47	13.827622075654
8	182673	47.1	13.796644524813
8	183448	47.2	13.762914208006
8	184223	47.3	13.857166283524
8	184998	47.4	13.763497545572
8	185773	47.5	13.839188932222
8	186548	47.6	13.783400558496
8	187323	47.7	13.78171735659
8	188098	47.8	13.873906560359
8	188873	47.9	13.824809910161
8	189650	48	13.789632613629
8	190425	48.1	13.799728794454
8	191200	48.2	13.768478444421
8	191975	48.3	13.84847544288
8	192750	48.4	13.844673524704
8	193525	48.5	13.836120650584
8	194300	48.6	13.770434061782
8	195075	48.7	13.823117556034
8	195850	48.8	13.843462088066
8	196625	48.9	13.847236010688
8	197402	49	13.808319202357
8	198177	49.1	13.762728580637
8	198952	49.2	13.760191545244
8	199727	49.3	13.864409232589
8	200502	49.4	13.770997006355
8	201277	49.5	13.496359911606
8	202052	49.6	13.191328880018
8	202827	49.7	12.883647544619
8	203602	49.8	12.594953372419
8	204519	49.9	12.173360054545
8	205439	50	11.916400972914
8	206357	50.1	11.550193886426
8	207275	50.2	11.132130295009
8	208193	50.3	10.80365989187
8	209111	50.4	10.477325877766
8	210029	50.5	10.16083205174
8	210947	50.6	9.8802183066629
8	211865	50.7	9.5611504161002
8	212783	50.8	9.2336625586381
8	213701	50.9	9.0260171164778
8	214621	51	8.7210062404051
8	215539	51.1	8.3491000204714
8	216457	51.2	8.0186210260249
8	217375	51.3	7.7047030262172
8	218293	51.4	7.424024757876
8	219211	51.5	7.2005164656798
8	220129	51.6	6.8923601513959
8	221047	51.7	6.6669248377081
8	221965	51.8	6.3982212519966
8	222883	51.9	6.1273131487733
8	223803	52	5.8442241732997
8	224721	52.1	5.4832944519486
8	225639	52.2	5.3244113858959
8	226557	52.3	5.0532721367457
8	227475	52.4	4.800347535535
8	228393	52.5	4.5173545890672
8	229311	52.6	4.324442529797
8	230229	52.7	4.1070891577543
8	231147	52.8	3.8784871566958
8	232065	52.9	3.6080564643758
8	232985	53	3.4444663123851
8	233903	53.1	3.7044663123851
8	234821	53.2	3.9644663123851
8	235739	53.3	4.2244663123851
8	236657	53.4	4.4844663123851
8	237575	53.5	4.7444663123851
8	238493	53.6	5.0044663123851
8	239411	53.7	5.2644663123851
8	240329	53.8	5.5244663123851
8	241247	53.9	5.7844663123851
8	242167	54	5.9539485023771
8	243085	54.1	6.2018254831405
8	244003	54.2	6.3425015224698
8	244921	54.3	6.5731029192796
8	245839	54.4	6.7540406130761
8	246757	54.5	6.9364540756279
8	247675	54.6	7.1828256284021
8	248593	54.7	7.4014270652453
8	249511	54.8	7.5692722876761
8	250429	54.9	7.7227038762434
8	251349	55	7.9112794605381
8	252267	55.1	8.0661604036875
8	253185	55.2	8.28524514344
8	254103	55.3	8.4268919015834
[...]
93	772296	100.6	-1.4021562312264
93	774109	100.7	-0.22458268186432
93	775922	100.8	-0.26794725326653
93	777735	100.9	-0.9388579331569
93	779550	101	-1.1146922748384
94	648419	92.1	1.4192697835985
94	649659	92.2	1.5902591559392
94	650899	92.3	1.702844063983
94	652139	92.4	1.75706381621
94	653379	92.5	1.9697789715072
94	654619	92.6	2.0213633166647
94	655859	92.7	2.0176558037688
94	657099	92.8	2.0243361887104
94	658339	92.9	2.0776745077036
94	659581	93	2.1826768179741
94	660821	93.1	2.4620922275694
94	662061	93.2	2.5078013234434
94	663301	93.3	2.6966370451694
94	664541	93.4	2.405979083238
94	665781	93.5	2.9947859782259
94	667021	93.6	2.4243974145922
94	668261	93.7	2.9505244611343
94	669501	93.8	2.9774708517231
94	670741	93.9	3.3529489778086
94	671983	94	2.9938989561945
94	673223	94.1	3.1815240464432
94	674463	94.2	3.1458627033603
94	675703	94.3	3.0143350275393
94	676943	94.4	4.3427876300885
94	678183	94.5	4.1236066694231
94	679423	94.6	3.3678868512574
94	680841	94.7	3.3146096287052
94	682260	94.8	4.7274265672238
94	683679	94.9	5.0045622659129
94	685100	95	3.3343958435092
94	686519	95.1	4.2884394415542
94	687938	95.2	5.1341078613652
94	689357	95.3	4.278771845445
94	690776	95.4	3.8892986669284
94	692195	95.5	4.6019794874503
94	693614	95.6	4.3136052927144
94	695033	95.7	4.7592271293519
94	696452	95.8	6.1820133655058
94	697871	95.9	5.1299761439259
94	699292	96	6.5749326061974
94	700711	96.1	4.6437222488466
94	702130	96.2	4.8916836620323
94	703549	96.3	0.973
94	704968	96.4	0.973
94	706387	96.5	0.973
94	707806	96.6	0.973
94	709225	96.7	0.973
94	710644	96.8	0.973
94	712063	96.9	0.973
94	713484	97	0.973
94	714903	97.1	0.973
94	716322	97.2	0.973
94	717741	97.3	0.973
94	719350	97.4	0.973
94	720960	97.5	0.973
94	722570	97.6	0.973
94	724180	97.7	0.973
94	725790	97.8	0.973
94	727400	97.9	0.973
94	729012	98	0.973
94	730622	98.1	0.973
94	732232	98.2	0.973
94	733842	98.3	0.973
94	735452	98.4	0.973
94	737062	98.5	0.973
94	738672	98.6	0.973
94	740282	98.7	0.973
94	741892	98.8	0.973
94	743502	98.9	0.973
94	745114	99	0.973
94	746724	99.1	0.973
94	748334	99.2	0.973
94	749944	99.3	0.973
94	751554	99.4	0.973
94	753164	99.5	0.973
94	754774	99.6	0.973
94	756384	99.7	0.973
94	757994	99.8	0.973
94	759604	99.9	0.973
94	761418	100	1.4595820943716
94	763231	100.1	0.973
94	765044	100.2	0.973
94	766857	100.3	0.973
94	768670	100.4	0.973
94	770483	100.5	0.973
94	772296	100.6	0.973
94	774109	100.7	0.973
94	775922	100.8	0.973
94	777735	100.9	0.973
94	779550	101	0.973
97	679423	94.6	2413.5228035761
97	680841	94.7	2413.5228035761
97	682260	94.8	2413.4995462437
97	683679	94.9	2413.4536663113
97	685100	95	2413.3835410918
97	686519	95.1	2413.2929855346
97	687938	95.2	2413.1831398892
97	689357	95.3	2413.0536793035
97	690776	95.4	2412.9005997124
97	692195	95.5	2412.7233672726
97	693614	95.6	2412.5281953645
97	695033	95.7	2412.3167440566
97	696452	95.8	2412.087079715
97	697871	95.9	2411.839602671
97	699292	96	2411.5795019042
97	700711	96.1	2411.2962267809
97	702130	96.2	2410.9931778817
97	703549	96.3	2410.6763466526
97	704968	96.4	2410.3466424068
97	706387	96.5	2410.003444974
97	707806	96.6	2409.6386363601
97	709225	96.7	2409.2500294601
97	710644	96.8	2408.8474303946
97	712063	96.9	2408.4280704503
97	713484	97	2407.9934207498
97	714903	97.1	2407.5542194133
97	716322	97.2	2407.2084511411
97	717741	97.3	2406.8528023283
97	719350	97.4	2406.4810154639
97	720960	97.5	2406.0988171933
97	722570	97.6	2405.705649144
97	724180	97.7	2405.2980542249
97	725790	97.8	2404.8747186896
97	727400	97.9	2404.4400668526
97	729012	98	2403.9892359155
97	730622	98.1	2403.5259051484
97	732232	98.2	2403.0472486272
97	733842	98.3	2402.5550714965
97	735452	98.4	2402.0497907868
97	737062	98.5	2401.5307898244
97	738672	98.6	2401.00169573
97	740282	98.7	2400.4612495878
97	741892	98.8	2399.9067623432
97	743502	98.9	2399.3584350058
97	745114	99	2398.8232609144
97	746724	99.1	2398.2963034634
97	748334	99.2	2397.7816275478
97	749944	99.3	2397.270647992
97	751554	99.4	2396.7720579711
97	753164	99.5	2396.2780894749
97	754774	99.6	2395.7990524456
97	756384	99.7	2395.3291323351
97	757994	99.8	2394.8595225202
97	759604	99.9	2394.4016670678
97	761418	100	2393.9539099747
97	763231	100.1	2393.514909475
97	765044	100.2	2393.0855623054
97	766857	100.3	2392.6626856191
97	768670	100.4	2392.2485196296
97	770483	100.5	2391.8486936141
97	772296	100.6	2391.4578786688
97	774109	100.7	2391.0687093511
97	775922	100.8	2390.6877222609
97	777735	100.9	2390.3189482179
97	779550	101	2389.9542332692
98	679423	94.6	1578.9478335427
98	680841	94.7	1578.9478335427
98	682260	94.8	1578.9563735137
98	683679	94.9	1578.9732203856
98	685100	95	1578.9989700001
98	686519	95.1	1579.0322215278
98	687938	95.2	1579.0725562759
98	689357	95.3	1579.1200935272
98	690776	95.4	1579.1763035543
98	692195	95.5	1579.2413823809
98	693614	95.6	1579.3130484866
98	695033	95.7	1579.3906923039
98	696452	95.8	1579.4750238517
98	697871	95.9	1579.5658961302
98	699292	96	1579.6614037743
98	700711	96.1	1579.7654209211
98	702130	96.2	1579.8766988954
98	703549	96.3	1579.993037669
98	704968	96.4	1580.1141033471
98	706387	96.5	1580.2401236538
98	707806	96.6	1580.3740794724
98	709225	96.7	1580.5167738982
98	710644	96.8	1580.6646061735
98	712063	96.9	1580.8185929563
98	713484	97	1580.9781940579
98	714903	97.1	1581.1561121829
98	716322	97.2	1581.5063278079
98	717741	97.3	1581.8665510584
98	719350	97.4	1582.2431199327
98	720960	97.5	1582.6302341279
98	722570	97.6	1583.028459196
98	724180	97.7	1583.4412966967
98	725790	97.8	1583.8700772729
98	727400	97.9	1584.310319704
98	729012	98	1584.7669493351
98	730622	98.1	1585.2362395711
98	732232	98.2	1585.7210526848
98	733842	98.3	1586.219560313
98	735452	98.4	1586.7313400619
98	737062	98.5	1587.2570165358
98	738672	98.6	1587.7929159626
98	740282	98.7	1588.3403134504
98	741892	98.8	1588.90193264
98	743502	98.9	1589.457312692
98	745114	99	1589.9993703179
98	746724	99.1	1590.5331056193
98	748334	99.2	1591.0544014173
98	749944	99.3	1591.5719533125
98	751554	99.4	1592.076956315
98	753164	99.5	1592.5772783495
98	754774	99.6	1593.0624768659
98	756384	99.7	1593.5384411989
98	757994	99.8	1594.0140912458
98	759604	99.9	1594.4778357428
98	761418	100	1594.9313519923
98	763231	100.1	1595.3759990195
98	765044	100.2	1595.8108685529
98	766857	100.3	1596.2391843786
98	768670	100.4	1596.6586774681
98	770483	100.5	1597.0636461396
98	772296	100.6	1597.4594878387
98	774109	100.7	1597.8536627432
98	775922	100.8	1598.2395501789
98	777735	100.9	1598.6130674798
98	779550	101	1598.9824734777
99	680841	94.7	0.24777006081515
99	682260	94.8	0.48877805367236
99	683679	94.9	0.74707320955999
99	685100	95	0.96472611648214
99	686519	95.1	1.1702314721639
99	687938	95.2	1.3791976106168
99	689357	95.3	1.6308207257803
99	690776	95.4	1.8881310958687
99	692195	95.5	2.0792477337363
99	693614	95.6	2.252678967627
99	695033	95.7	2.4467100133104
99	696452	95.8	2.6364761599279
99	697871	95.9	2.7709619431812
99	699292	96	3.0178480280992
99	700711	96.1	3.2285063093281
99	702130	96.2	3.3753352183253
99	703549	96.3	3.5124768324508
99	704968	96.4	3.6562253822186
99	706387	96.5	3.8864583072495
99	707806	96.6	4.139991373139
99	709225	96.7	4.2890557485269
99	710644	96.8	4.4676163799441
99	712063	96.9	4.6305045296052
99	713484	97	4.771307999779
99	714903	97.1	4.9217120428439
99	716322	97.2	5.0623529855078
99	717741	97.3	5.2920641798512
99	719350	97.4	5.4402615351728
99	720960	97.5	5.5964068377726
99	722570	97.6	5.8017608419489
99	724180	97.7	6.0258148874282
99	725790	97.8	6.1868926477232
99	727400	97.9	6.4171881316216
99	729012	98	6.5951123895482
99	730622	98.1	6.8132612342862
99	732232	98.2	7.0057154057114
99	733842	98.3	7.1922335094991
99	735452	98.4	7.3875294292844
99	737062	98.5	7.5311964281146
99	738672	98.6	7.6927830006005
99	740282	98.7	7.8926459395778
99	741892	98.8	7.8049649923284
99	743502	98.9	7.6177399213275
99	745114	99	7.500783158605
99	746724	99.1	7.3259661320722
99	748334	99.2	7.2733516505511
99	749944	99.3	7.0969973468506
99	751554	99.4	7.0312139445861
99	753164	99.5	6.8186774362069
99	754774	99.6	6.6889059895954
99	756384	99.7	6.6844892018997
99	757994	99.8	6.5171760257621
99	759604	99.9	6.373434621751
99	761418	100	6.2487920964512
99	763231	100.1	6.1113852964186
99	765044	100.2	6.019283569951
99	766857	100.3	5.8952943411814
99	768670	100.4	5.6911772228723
99	770483	100.5	5.5629124409267
99	772296	100.6	5.5394883566566
99	774109	100.7	5.4230214297884
99	775922	100.8	5.2491792753012
99	777735	100.9	5.1914015827228
99	779550	101	5.0895938096168
100	682260	94.8	2.4100799285721
100	683679	94.9	2.5829515588763
100	685100	95	2.1765290692215
100	686519	95.1	2.0550535568173
100	687938	95.2	2.0896613845294
100	689357	95.3	2.5162311516348
100	690776	95.4	2.573103700884
100	692195	95.5	1.9111663786757
100	693614	95.6	1.7343123389078
100	695033	95.7	1.940310456834
100	696452	95.8	1.8976614661748
100	697871	95.9	1.3448578325333
100	699292	96	2.4688608491793
100	700711	96.1	2.1065828122897
100	702130	96.2	1.4682890899712
100	703549	96.3	1.3714161412558
100	704968	96.4	1.4374854976777
100	706387	96.5	2.3023292503087
100	707806	96.6	2.535330658895
100	709225	96.7	1.4906437538797
100	710644	96.8	1.785606314172
100	712063	96.9	1.6288814966101
100	713484	97	1.4080347017385
100	714903	97.1	1.5040404306492
100	716322	97.2	1.4064094266389
100	717741	97.3	2.297111943434
100	719350	97.4	1.4819735532161
100	720960	97.5	1.5614530259976
100	722570	97.6	2.0535400417633
100	724180	97.7	2.2405404547928
100	725790	97.8	1.6107776029501
100	727400	97.9	2.3029548389837
100	729012	98	1.7792425792664
100	730622	98.1	2.1814884473802
100	732232	98.2	1.924541714252
100	733842	98.3	1.8651810378767
100	735452	98.4	1.9529591978528
100	737062	98.5	1.4366699883016
100	738672	98.6	1.6158657248598
100	740282	98.7	1.9986293897731
100	741892	98.8	-0.87680947249394
100	743502	98.9	-1.8722507100092
100	745114	99	-1.1695676272257
100	746724	99.1	-1.748170265328
100	748334	99.2	-0.52614481521045
100	749944	99.3	-1.7635430370054
100	751554	99.4	-0.65783402264451
100	753164	99.5	-2.1253650837921
100	754774	99.6	-1.2977144661151
100	756384	99.7	-0.044167876956696
100	757994	99.8	-1.6731317613763
100	759604	99.9	-1.4374140401109
100	761418	100	-1.2464252529979
100	763231	100.1	-1.3740680003267
100	765044	100.2	-0.92101726467596
100	766857	100.3	-1.2398922876956
100	768670	100.4	-2.0411711830908
100	770483	100.5	-1.2826478194565
100	772296	100.6	-0.23424084270095
100	774109	100.7	-1.1646692686818
100	775922	100.8	-1.7384215448723
100	777735	100.9	-0.57777692578357
100	779550	101	-1.01807773106
101	682260	94.8	1.4174860370661
101	683679	94.9	1.6111239220977
101	685100	95	1.6626621509884
101	686519	95.1	1.7461781014138
101	687938	95.2	1.8713503410844
101	689357	95.3	2.1780202470123
101	690776	95.4	2.3725693340611
101	692195	95.5	2.1688163136019
101	693614	95.6	2.1612758415843
101	695033	95.7	2.3735002235139
101	696452	95.8	2.44463311123
101	697871	95.9	2.14373518427
101	699292	96	3.0537258908196
101	700711	96.1	2.9079207678009
101	702130	96.2	2.4707668418544
101	703549	96.3	2.4443583850888
101	704968	96.4	2.557532258198
101	706387	96.5	3.4593511883516
101	707806	96.6	3.8458636987235
101	709225	96.7	2.8650153313265
101	710644	96.8	3.2563097750699
101	712063	96.9	3.1603003017895
101	713484	97	2.969280454929
101	714903	97.1	3.1424281759526
101	716322	97.2	3.0820502565383
101	717741	97.3	4.3086883642319
101	719350	97.4	3.3303323780099
101	720960	97.5	3.5021475274505
101	722570	97.6	4.2792273087507
101	724180	97.7	4.6746585798363
101	725790	97.8	3.8320684898935
101	727400	97.9	5.0055945253748
101	729012	98	4.2826152718811
101	730622	98.1	5.0498840814598
101	732232	98.2	4.7290721041567
101	733842	98.3	4.7242931501017
101	735452	98.4	4.9806576194269
101	737062	98.5	4.1203479765848
101	738672	98.6	4.5189069401024
101	740282	98.7	5.3378088198009
101	741892	98.8	0.973
101	743502	98.9	0.973
101	745114	99	0.973
101	746724	99.1	0.973
101	748334	99.2	0.973
101	749944	99.3	0.973
101	751554	99.4	0.973
101	753164	99.5	0.973
101	754774	99.6	0.973
101	756384	99.7	1.3888986230604
101	757994	99.8	0.973
101	759604	99.9	0.973
101	761418	100	0.973
101	763231	100.1	0.973
101	765044	100.2	0.973
101	766857	100.3	0.973
101	768670	100.4	0.973
101	770483	100.5	0.973
101	772296	100.6	0.973
101	774109	100.7	0.973
101	775922	100.8	0.973
101	777735	100.9	0.973
101	779550	101	0.973
104	717741	97.3	2413.5228035761
104	719350	97.4	2413.5228035761
104	720960	97.5	2413.4990972055
104	722570	97.6	2413.4521198362
104	724180	97.7	2413.3816608693
104	725790	97.8	2413.2905441032
104	727400	97.9	2413.1781951725
104	729012	98	2413.0418784188
104	730622	98.1	2412.8872731065
104	732232	98.2	2412.7104339364
104	733842	98.3	2412.5092027342
104	735452	98.4	2412.2912851943
104	737062	98.5	2412.0528832681
104	738672	98.6	2411.7926059556
104	740282	98.7	2411.5107305715
104	741892	98.8	2411.206203004
104	743502	98.9	2410.8866779836
104	745114	99	2410.5440001821
104	746724	99.1	2410.1818551858
104	748334	99.2	2409.8013861291
104	749944	99.3	2409.4029366464
104	751554	99.4	2408.9804195793
104	753164	99.5	2408.5399479059
104	754774	99.6	2408.0858875635
104	756384	99.7	2407.6098215198
104	757994	99.8	2407.2320667062
104	759604	99.9	2406.8523838759
104	761418	100	2406.4550392018
104	763231	100.1	2406.0428002971
104	765044	100.2	2405.6136282834
104	766857	100.3	2405.1670866174
104	768670	100.4	2404.7040907933
104	770483	100.5	2404.2240118242
104	772296	100.6	2403.7287736405
104	774109	100.7	2403.216741817
104	775922	100.8	2402.7061464002
104	777735	100.9	2402.2027453219
104	779550	101	2401.7128348358
105	717741	97.3	1578.9478335427
105	719350	97.4	1578.9478335427
105	720960	97.5	1578.9565383978
105	722570	97.6	1578.9737882428
105	724180	97.7	1578.9996604081
105	725790	97.8	1579.0331180086
105	727400	97.9	1579.0743719498
105	729012	98	1579.1244267505
105	730622	98.1	1579.1811970146
105	732232	98.2	1579.2461314341
105	733842	98.3	1579.3200224815
105	735452	98.4	1579.4000406647
105	737062	98.5	1579.4875806086
105	738672	98.6	1579.5831530793
105	740282	98.7	1579.6866562488
105	741892	98.8	1579.7984771822
105	743502	98.9	1579.9158051023
105	745114	99	1580.0416346025
105	746724	99.1	1580.1746123545
105	748334	99.2	1580.3143186066
105	749944	99.3	1580.4606271777
105	751554	99.4	1580.6157732392
105	753164	99.5	1580.7775121387
105	754774	99.6	1580.9442407265
105	756384	99.7	1581.1190496935
105	757994	99.8	1581.4824084938
105	759604	99.9	1581.866974893
105	761418	100	1582.2694303077
105	763231	100.1	1582.6869715257
105	765044	100.2	1583.1216636514
105	766857	100.3	1583.5739488406
105	768670	100.4	1584.0428998256
105	770483	100.5	1584.5291536832
105	772296	100.6	1585.0307617364
105	774109	100.7	1585.5493794335
105	775922	100.8	1586.0665422482
105	777735	100.9	1586.5764181893
105	779550	101	1587.0726300189
106	719350	97.4	0.2525538524657
106	720960	97.5	0.50046950645556
106	722570	97.6	0.75062875894596
106	724180	97.7	0.97070490932715
106	725790	97.8	1.1969000151596
106	727400	97.9	1.4522392273173
106	729012	98	1.6470748697803
106	730622	98.1	1.88394142993
106	732232	98.2	2.1437999198329
106	733842	98.3	2.3215664354755
106	735452	98.4	2.5397951455645
106	737062	98.5	2.7728427582279
106	738672	98.6	3.0029360224235
106	740282	98.7	3.2442591795021
106	741892	98.8	3.4040332998892
106	743502	98.9	3.6506895333713
106	745114	99	3.8580816771158
106	746724	99.1	4.0532955353123
106	748334	99.2	4.2448485128463
106	749944	99.3	4.5012505254217
106	751554	99.4	4.6925284341791
106	753164	99.5	4.8372941938995
106	754774	99.6	5.071730106687
106	756384	99.7	5.2702303384522
106	757994	99.8	5.404456419742
106	759604	99.9	5.6558574779632
106	761418	100	5.8678639555092
106	763231	100.1	6.1088921066232
106	765044	100.2	6.3561340686607
106	766857	100.3	6.5903447674306
106	768670	100.4	6.8335085484127
106	770483	100.5	7.0492868466813
106	772296	100.6	7.288329770779
106	774109	100.7	7.267883764255
106	775922	100.8	7.165478583754
106	777735	100.9	6.9734516823961
106	779550	101	6.8615225496942
107	720960	97.5	2.4791565398986
107	722570	97.6	2.5015925249039
107	724180	97.7	2.200761503812
107	725790	97.8	2.2619510583241
107	727400	97.9	2.5533921215776
107	729012	98	1.9483564246296
107	730622	98.1	2.3686656014972
107	732232	98.2	2.5985848990285
107	733842	98.3	1.7776651564269
107	735452	98.4	2.1822871008896
107	737062	98.5	2.3304761266336
107	738672	98.6	2.300932641956
107	740282	98.7	2.4132315707859
107	741892	98.8	1.5977412038716
107	743502	98.9	2.4665623348206
107	745114	99	2.0739214374451
107	746724	99.1	1.9521385819651
107	748334	99.2	1.9155297753401
107	749944	99.3	2.5640201257542
107	751554	99.4	1.9127790875733
107	753164	99.5	1.4476575972047
107	754774	99.6	2.3443591278745
107	756384	99.7	1.9850023176521
107	757994	99.8	1.3422608128982
107	759604	99.9	2.5140105822124
107	761418	100	2.1200647754595
107	763231	100.1	2.4102815111401
107	765044	100.2	2.4724196203751
107	766857	100.3	2.3421069876989
107	768670	100.4	2.4316378098214
107	770483	100.5	2.1577829826856
107	772296	100.6	2.3904292409774
107	774109	100.7	-0.2044600652405
107	775922	100.8	-1.0240518050098
107	777735	100.9	-1.9202690135786
107	779550	101	-1.1192913270199
108	720960	97.5	1.4331731111491
108	722570	97.6	1.5987913192286
108	724180	97.7	1.6717571895178
108	725790	97.8	1.8203632041928
108	727400	97.9	2.0739997802617
108	729012	98	1.9632580920371
108	730622	98.1	2.2769440004485
108	732232	98.2	2.5569009939369
108	733842	98.3	2.2177474839318
108	735452	98.4	2.5697906567971
108	737062	98.5	2.8030839684297
108	738672	98.6	2.9225655910491
108	740282	98.7	3.1564823122405
108	741892	98.8	2.5885965499843
108	743502	98.9	3.4607253738707
108	745114	99	3.2297462288423
108	746724	99.1	3.2186180082487
108	748334	99.2	3.2814404848277
108	749944	99.3	4.1170179328232
108	751554	99.4	3.5090735881323
108	753164	99.5	3.0414691351568
108	754774	99.6	4.2321913415922
108	756384	99.7	3.898960635582
108	757994	99.8	3.133553175266
108	759604	99.9	4.8263035078811
108	761418	100	4.4098307589771
108	763231	100.1	4.9742731144374
108	765044	100.2	5.2276643069209
108	766857	100.3	5.1742659018401
108	768670	100.4	5.4737317333006
108	770483	100.5	5.1482278959556
108	772296	100.6	5.6961129262802
108	774109	100.7	0.973
108	775922	100.8	0.973
108	777735	100.9	0.973
108	779550	101	0.973
111	759604	99.9	2413.5228035761
111	761418	100	2413.5228035761
111	763231	100.1	2413.4990546341
111	765044	100.2	2413.4509472982
111	766857	100.3	2413.3804931456
111	768670	100.4	2413.2876144613
111	770483	100.5	2413.1717368723
111	772296	100.6	2413.0315443216
111	774109	100.7	2412.8672578258
111	775922	100.8	2412.6869282962
111	777735	100.9	2412.482867297
111	779550	101	2412.2579667248
112	759604	99.9	1578.9478335427
112	761418	100	1578.9478335427
112	763231	100.1	1578.9565540301
112	765044	100.2	1578.9742187932
112	766857	100.3	1579.00008919
112	768670	100.4	1579.0341937579
112	770483	100.5	1579.0767434044
112	772296	100.6	1579.1282213768
112	774109	100.7	1579.1885465207
112	775922	100.8	1579.2547625825
112	777735	100.9	1579.3296927167
112	779550	101	1579.4122750331
113	761418	100	0.25300738349278
113	763231	100.1	0.51250751287072
113	765044	100.2	0.75057747031053
113	766857	100.3	0.98947535917907
113	768670	100.4	1.2344922819784
113	770483	100.5	1.4935297098543
113	772296	100.6	1.7502125550009
113	774109	100.7	1.9211256840063
113	775922	100.8	2.1739469282644
113	777735	100.9	2.3959595907957
113	779550	101	2.6200885719934
114	763231	100.1	2.5950012937795
114	765044	100.2	2.3806995743981
114	766857	100.3	2.3889788886854
114	768670	100.4	2.4501692279929
114	770483	100.5	2.5903742787591
114	772296	100.6	2.5668284514665
114	774109	100.7	1.7091312900534
114	775922	100.8	2.528212442581
114	777735	100.9	2.2201266253132
114	779550	101	2.2412898119772
115	763231	100.1	1.4552555940236
115	765044	100.2	1.5768896904518
115	766857	100.3	1.7275061983261
115	768670	100.4	1.8986820182645
115	770483	100.5	2.1147366624417
115	772296	100.6	2.2776169142691
115	774109	100.7	1.9946430015741
115	775922	100.8	2.5404044376052
115	777735	100.9	2.5088111144642
115	779550	101	2.6532977055614
