file 27292307 1504542491                                        
version 2
run SingleCH_Safety_B_100Bytes_Q_1-0-20170902-20:39:29-60988
attr configname SingleCH_Safety_B_100Bytes_Q_1
attr datetime 20170902-20:39:29
attr experiment SingleCH_Safety_B_100Bytes_Q_1
attr inifile omnetpp.ini
attr iterationvars $0=1
attr iterationvars2 "$0=1, $repetition=0"
attr measurement $0=1
attr network RSUScenario
attr processid 60988
attr repetition 0
attr replication #0
attr resultdir results
attr runnumber 0
attr seedset 0
param **.coreDebug false
param **.debug true
param *.**.nic.mac1609_4.bitrate 6Mbps
param *.**.nic.mac1609_4.queueSize ${1,2,5}
param *.**.nic.mac1609_4.txPower 100mW
param *.**.nic.mac1609_4.useServiceChannel false
param *.**.nic.phy80211p.analogueModels "xmldoc(\"config.xml\")"
param *.**.nic.phy80211p.decider "xmldoc(\"config.xml\")"
param *.**.nic.phy80211p.decider.collectCollisionStats true
param *.**.nic.phy80211p.maxTXPower 100mW
param *.**.nic.phy80211p.sensitivity -89dBm
param *.**.nic.phy80211p.thermalNoise -110dBm
param *.**.nic.phy80211p.usePropagationDelay true
param *.**.nic.phy80211p.useThermalNoise true
param *.annotations.draw false
param *.connectionManager.alpha 2.0
param *.connectionManager.carrierFrequency "5.890e9 Hz"
param *.connectionManager.pMax 100mW
param *.connectionManager.sat -89dBm
param *.connectionManager.sendDirect true
param *.manager.autoShutdown true
param *.manager.host "\"localhost\""
param *.manager.launchConfig "xmldoc(\"erlangen.launchd.xml\")"
param *.manager.margin 25
param *.manager.moduleDisplayString "\"\""
param *.manager.moduleName "\"node\""
param *.manager.moduleType "\"vanets.src.CarWithMetrics\""
param *.manager.numVehicles 5
param *.manager.port 9999
param *.manager.updateInterval 0.1s
param *.metricsApplicaiton[*].appl.sendBeacons false
param *.metricsApplication.appl.beaconInterval 1s
param *.metricsApplication.appl.beaconLengthBits 800bit
param *.metricsApplication.appl.beaconPriority 3
param *.metricsApplication.appl.dataOnSch false
param *.metricsApplication.appl.dataPriority 2
param *.metricsApplication.appl.debug false
param *.metricsApplication.appl.headerLength "256 bit"
param *.metricsApplication.appl.maxOffset 0.005s
param *.metricsApplication.appl.sendBeacons false
param *.metricsApplication.appl.sendData true
param *.metricsApplication.applType "\"TraCIDemoRSU11p\""
param *.metricsApplication.mobility.x 2000
param *.metricsApplication.mobility.y 2000
param *.metricsApplication.mobility.z 3
param *.metricsApplication[*].appl.beaconInterval 0.1s
param *.metricsApplication[*].appl.beaconPriority 3
param *.metricsApplication[*].appl.dataOnSch false
param *.metricsApplication[*].appl.sendData false
param *.node[*0].veinsmobility.accidentCount 1
param *.node[*0].veinsmobility.accidentDuration 30s
param *.node[*0].veinsmobility.accidentStart 10s
param *.node[*].appl.beaconInterval 1s
param *.node[*].appl.beaconLengthBits 800bit
param *.node[*].appl.beaconPriority 3
param *.node[*].appl.dataOnSch false
param *.node[*].appl.dataPriority 2
param *.node[*].appl.debug false
param *.node[*].appl.headerLength "256 bit"
param *.node[*].appl.maxOffset 0.005s
param *.node[*].appl.sendBeacons false
param *.node[*].appl.sendData true
param *.node[*].applType "\"TraCIDemo11p\""
param *.node[*].mobilityType "\"TraCIMobility\""
param *.node[*].mobilityType.debug true
param *.node[*].veinsmobility.x 0
param *.node[*].veinsmobility.y 0
param *.node[*].veinsmobility.z 1.895
param *.node[*].veinsmobilityType "\"org.car2x.veins.modules.mobility.traci.TraCIMobility\""
param *.node[*].veinsmobilityType.debug true
param *.obstacles.debug false
param *.playgroundSizeX 25000m
param *.playgroundSizeY 25000m
param *.playgroundSizeZ 50m
param *.rsu[*].appl.beaconInterval 1s
param *.rsu[*].appl.beaconLengthBits 800bit
param *.rsu[*].appl.beaconPriority 3
param *.rsu[*].appl.dataOnSch false
param *.rsu[*].appl.dataPriority 2
param *.rsu[*].appl.debug false
param *.rsu[*].appl.headerLength "256 bit"
param *.rsu[*].appl.maxOffset 0.005s
param *.rsu[*].appl.sendBeacons false
param *.rsu[*].appl.sendData true
param *.rsu[*].applType "\"TraCIDemoRSU11p\""
param *.rsu[0].mobility.x 2000
param *.rsu[0].mobility.y 2000
param *.rsu[0].mobility.z 3
param *.world.use2D false
param *.world.useTorus false

vector 6  RSUScenario.node[0].veinsmobility  posx  ETV
vector 7  RSUScenario.node[0].veinsmobility  posy  ETV
vector 8  RSUScenario.node[0].veinsmobility  speed  ETV
vector 9  RSUScenario.node[0].veinsmobility  acceleration  ETV
vector 10  RSUScenario.node[0].veinsmobility  co2emission  ETV
vector 13  RSUScenario.node[1].veinsmobility  posx  ETV
vector 14  RSUScenario.node[1].veinsmobility  posy  ETV
vector 20  RSUScenario.node[2].veinsmobility  posx  ETV
vector 21  RSUScenario.node[2].veinsmobility  posy  ETV
vector 15  RSUScenario.node[1].veinsmobility  speed  ETV
vector 22  RSUScenario.node[2].veinsmobility  speed  ETV
vector 16  RSUScenario.node[1].veinsmobility  acceleration  ETV
vector 17  RSUScenario.node[1].veinsmobility  co2emission  ETV
vector 23  RSUScenario.node[2].veinsmobility  acceleration  ETV
vector 24  RSUScenario.node[2].veinsmobility  co2emission  ETV
vector 27  RSUScenario.node[3].veinsmobility  posx  ETV
vector 28  RSUScenario.node[3].veinsmobility  posy  ETV
vector 34  RSUScenario.node[4].veinsmobility  posx  ETV
vector 35  RSUScenario.node[4].veinsmobility  posy  ETV
vector 29  RSUScenario.node[3].veinsmobility  speed  ETV
vector 36  RSUScenario.node[4].veinsmobility  speed  ETV
vector 30  RSUScenario.node[3].veinsmobility  acceleration  ETV
vector 31  RSUScenario.node[3].veinsmobility  co2emission  ETV
vector 37  RSUScenario.node[4].veinsmobility  acceleration  ETV
vector 38  RSUScenario.node[4].veinsmobility  co2emission  ETV
vector 41  RSUScenario.node[5].veinsmobility  posx  ETV
vector 42  RSUScenario.node[5].veinsmobility  posy  ETV
vector 43  RSUScenario.node[5].veinsmobility  speed  ETV
vector 44  RSUScenario.node[5].veinsmobility  acceleration  ETV
vector 45  RSUScenario.node[5].veinsmobility  co2emission  ETV
vector 48  RSUScenario.node[6].veinsmobility  posx  ETV
vector 49  RSUScenario.node[6].veinsmobility  posy  ETV
vector 50  RSUScenario.node[6].veinsmobility  speed  ETV
vector 51  RSUScenario.node[6].veinsmobility  acceleration  ETV
vector 52  RSUScenario.node[6].veinsmobility  co2emission  ETV
vector 55  RSUScenario.node[7].veinsmobility  posx  ETV
vector 56  RSUScenario.node[7].veinsmobility  posy  ETV
vector 57  RSUScenario.node[7].veinsmobility  speed  ETV
vector 58  RSUScenario.node[7].veinsmobility  acceleration  ETV
vector 59  RSUScenario.node[7].veinsmobility  co2emission  ETV
vector 62  RSUScenario.node[8].veinsmobility  posx  ETV
vector 63  RSUScenario.node[8].veinsmobility  posy  ETV
vector 64  RSUScenario.node[8].veinsmobility  speed  ETV
vector 65  RSUScenario.node[8].veinsmobility  acceleration  ETV
vector 66  RSUScenario.node[8].veinsmobility  co2emission  ETV
vector 69  RSUScenario.node[9].veinsmobility  posx  ETV
vector 70  RSUScenario.node[9].veinsmobility  posy  ETV
vector 71  RSUScenario.node[9].veinsmobility  speed  ETV
vector 72  RSUScenario.node[9].veinsmobility  acceleration  ETV
vector 73  RSUScenario.node[9].veinsmobility  co2emission  ETV
vector 76  RSUScenario.node[10].veinsmobility  posx  ETV
vector 77  RSUScenario.node[10].veinsmobility  posy  ETV
vector 78  RSUScenario.node[10].veinsmobility  speed  ETV
vector 79  RSUScenario.node[10].veinsmobility  acceleration  ETV
vector 80  RSUScenario.node[10].veinsmobility  co2emission  ETV
vector 83  RSUScenario.node[11].veinsmobility  posx  ETV
vector 84  RSUScenario.node[11].veinsmobility  posy  ETV
vector 85  RSUScenario.node[11].veinsmobility  speed  ETV
vector 86  RSUScenario.node[11].veinsmobility  acceleration  ETV
vector 87  RSUScenario.node[11].veinsmobility  co2emission  ETV
vector 90  RSUScenario.node[12].veinsmobility  posx  ETV
vector 91  RSUScenario.node[12].veinsmobility  posy  ETV
vector 92  RSUScenario.node[12].veinsmobility  speed  ETV
vector 93  RSUScenario.node[12].veinsmobility  acceleration  ETV
vector 94  RSUScenario.node[12].veinsmobility  co2emission  ETV
vector 97  RSUScenario.node[13].veinsmobility  posx  ETV
vector 98  RSUScenario.node[13].veinsmobility  posy  ETV
vector 99  RSUScenario.node[13].veinsmobility  speed  ETV
vector 100  RSUScenario.node[13].veinsmobility  acceleration  ETV
vector 101  RSUScenario.node[13].veinsmobility  co2emission  ETV
vector 104  RSUScenario.node[14].veinsmobility  posx  ETV
vector 105  RSUScenario.node[14].veinsmobility  posy  ETV
vector 106  RSUScenario.node[14].veinsmobility  speed  ETV
vector 107  RSUScenario.node[14].veinsmobility  acceleration  ETV
vector 108  RSUScenario.node[14].veinsmobility  co2emission  ETV
vector 111  RSUScenario.node[15].veinsmobility  posx  ETV
vector 112  RSUScenario.node[15].veinsmobility  posy  ETV
vector 113  RSUScenario.node[15].veinsmobility  speed  ETV
vector 114  RSUScenario.node[15].veinsmobility  acceleration  ETV
vector 115  RSUScenario.node[15].veinsmobility  co2emission  ETV
vector 118  RSUScenario.node[16].veinsmobility  posx  ETV
vector 119  RSUScenario.node[16].veinsmobility  posy  ETV
vector 120  RSUScenario.node[16].veinsmobility  speed  ETV
vector 121  RSUScenario.node[16].veinsmobility  acceleration  ETV
vector 122  RSUScenario.node[16].veinsmobility  co2emission  ETV
vector 125  RSUScenario.node[17].veinsmobility  posx  ETV
vector 126  RSUScenario.node[17].veinsmobility  posy  ETV
vector 127  RSUScenario.node[17].veinsmobility  speed  ETV
vector 128  RSUScenario.node[17].veinsmobility  acceleration  ETV
vector 129  RSUScenario.node[17].veinsmobility  co2emission  ETV
vector 132  RSUScenario.node[18].veinsmobility  posx  ETV
vector 133  RSUScenario.node[18].veinsmobility  posy  ETV
vector 134  RSUScenario.node[18].veinsmobility  speed  ETV
vector 135  RSUScenario.node[18].veinsmobility  acceleration  ETV
vector 136  RSUScenario.node[18].veinsmobility  co2emission  ETV
vector 139  RSUScenario.node[19].veinsmobility  posx  ETV
vector 140  RSUScenario.node[19].veinsmobility  posy  ETV
vector 141  RSUScenario.node[19].veinsmobility  speed  ETV
vector 142  RSUScenario.node[19].veinsmobility  acceleration  ETV
vector 143  RSUScenario.node[19].veinsmobility  co2emission  ETV
vector 146  RSUScenario.node[20].veinsmobility  posx  ETV
vector 147  RSUScenario.node[20].veinsmobility  posy  ETV
vector 148  RSUScenario.node[20].veinsmobility  speed  ETV
vector 149  RSUScenario.node[20].veinsmobility  acceleration  ETV
vector 150  RSUScenario.node[20].veinsmobility  co2emission  ETV
vector 153  RSUScenario.node[21].veinsmobility  posx  ETV
vector 154  RSUScenario.node[21].veinsmobility  posy  ETV
vector 155  RSUScenario.node[21].veinsmobility  speed  ETV
vector 156  RSUScenario.node[21].veinsmobility  acceleration  ETV
vector 157  RSUScenario.node[21].veinsmobility  co2emission  ETV
vector 160  RSUScenario.node[22].veinsmobility  posx  ETV
vector 161  RSUScenario.node[22].veinsmobility  posy  ETV
vector 162  RSUScenario.node[22].veinsmobility  speed  ETV
vector 163  RSUScenario.node[22].veinsmobility  acceleration  ETV
vector 164  RSUScenario.node[22].veinsmobility  co2emission  ETV
vector 167  RSUScenario.node[23].veinsmobility  posx  ETV
vector 168  RSUScenario.node[23].veinsmobility  posy  ETV
vector 169  RSUScenario.node[23].veinsmobility  speed  ETV
vector 170  RSUScenario.node[23].veinsmobility  acceleration  ETV
vector 171  RSUScenario.node[23].veinsmobility  co2emission  ETV
vector 174  RSUScenario.node[24].veinsmobility  posx  ETV
vector 175  RSUScenario.node[24].veinsmobility  posy  ETV
vector 176  RSUScenario.node[24].veinsmobility  speed  ETV
vector 177  RSUScenario.node[24].veinsmobility  acceleration  ETV
vector 178  RSUScenario.node[24].veinsmobility  co2emission  ETV
vector 181  RSUScenario.node[25].veinsmobility  posx  ETV
vector 182  RSUScenario.node[25].veinsmobility  posy  ETV
vector 183  RSUScenario.node[25].veinsmobility  speed  ETV
vector 184  RSUScenario.node[25].veinsmobility  acceleration  ETV
vector 185  RSUScenario.node[25].veinsmobility  co2emission  ETV
vector 188  RSUScenario.node[26].veinsmobility  posx  ETV
vector 189  RSUScenario.node[26].veinsmobility  posy  ETV
vector 190  RSUScenario.node[26].veinsmobility  speed  ETV
vector 191  RSUScenario.node[26].veinsmobility  acceleration  ETV
vector 192  RSUScenario.node[26].veinsmobility  co2emission  ETV
vector 195  RSUScenario.node[27].veinsmobility  posx  ETV
vector 196  RSUScenario.node[27].veinsmobility  posy  ETV
vector 197  RSUScenario.node[27].veinsmobility  speed  ETV
vector 198  RSUScenario.node[27].veinsmobility  acceleration  ETV
vector 199  RSUScenario.node[27].veinsmobility  co2emission  ETV
vector 202  RSUScenario.node[28].veinsmobility  posx  ETV
vector 203  RSUScenario.node[28].veinsmobility  posy  ETV
vector 204  RSUScenario.node[28].veinsmobility  speed  ETV
vector 205  RSUScenario.node[28].veinsmobility  acceleration  ETV
vector 206  RSUScenario.node[28].veinsmobility  co2emission  ETV
vector 209  RSUScenario.node[29].veinsmobility  posx  ETV
vector 210  RSUScenario.node[29].veinsmobility  posy  ETV
vector 211  RSUScenario.node[29].veinsmobility  speed  ETV
vector 212  RSUScenario.node[29].veinsmobility  acceleration  ETV
vector 213  RSUScenario.node[29].veinsmobility  co2emission  ETV
vector 216  RSUScenario.node[30].veinsmobility  posx  ETV
vector 217  RSUScenario.node[30].veinsmobility  posy  ETV
vector 218  RSUScenario.node[30].veinsmobility  speed  ETV
vector 219  RSUScenario.node[30].veinsmobility  acceleration  ETV
vector 220  RSUScenario.node[30].veinsmobility  co2emission  ETV
vector 223  RSUScenario.node[31].veinsmobility  posx  ETV
vector 224  RSUScenario.node[31].veinsmobility  posy  ETV
vector 225  RSUScenario.node[31].veinsmobility  speed  ETV
vector 226  RSUScenario.node[31].veinsmobility  acceleration  ETV
vector 227  RSUScenario.node[31].veinsmobility  co2emission  ETV
vector 230  RSUScenario.node[32].veinsmobility  posx  ETV
vector 231  RSUScenario.node[32].veinsmobility  posy  ETV
vector 232  RSUScenario.node[32].veinsmobility  speed  ETV
vector 233  RSUScenario.node[32].veinsmobility  acceleration  ETV
vector 234  RSUScenario.node[32].veinsmobility  co2emission  ETV
vector 237  RSUScenario.node[33].veinsmobility  posx  ETV
vector 238  RSUScenario.node[33].veinsmobility  posy  ETV
vector 239  RSUScenario.node[33].veinsmobility  speed  ETV
vector 240  RSUScenario.node[33].veinsmobility  acceleration  ETV
vector 241  RSUScenario.node[33].veinsmobility  co2emission  ETV
vector 244  RSUScenario.node[34].veinsmobility  posx  ETV
vector 245  RSUScenario.node[34].veinsmobility  posy  ETV
vector 246  RSUScenario.node[34].veinsmobility  speed  ETV
vector 247  RSUScenario.node[34].veinsmobility  acceleration  ETV
vector 248  RSUScenario.node[34].veinsmobility  co2emission  ETV
vector 251  RSUScenario.node[35].veinsmobility  posx  ETV
vector 252  RSUScenario.node[35].veinsmobility  posy  ETV
vector 253  RSUScenario.node[35].veinsmobility  speed  ETV
vector 254  RSUScenario.node[35].veinsmobility  acceleration  ETV
vector 255  RSUScenario.node[35].veinsmobility  co2emission  ETV
vector 258  RSUScenario.node[36].veinsmobility  posx  ETV
vector 259  RSUScenario.node[36].veinsmobility  posy  ETV
vector 260  RSUScenario.node[36].veinsmobility  speed  ETV
vector 261  RSUScenario.node[36].veinsmobility  acceleration  ETV
vector 262  RSUScenario.node[36].veinsmobility  co2emission  ETV
vector 265  RSUScenario.node[37].veinsmobility  posx  ETV
vector 266  RSUScenario.node[37].veinsmobility  posy  ETV
vector 267  RSUScenario.node[37].veinsmobility  speed  ETV
vector 268  RSUScenario.node[37].veinsmobility  acceleration  ETV
vector 269  RSUScenario.node[37].veinsmobility  co2emission  ETV
vector 272  RSUScenario.node[38].veinsmobility  posx  ETV
vector 273  RSUScenario.node[38].veinsmobility  posy  ETV
vector 274  RSUScenario.node[38].veinsmobility  speed  ETV
vector 275  RSUScenario.node[38].veinsmobility  acceleration  ETV
vector 276  RSUScenario.node[38].veinsmobility  co2emission  ETV
17	16054 31974 244 2721619 1.4 105.9 1046 -1.7943164605324 15.103411466746 5829.8566875327 48543.109749485
16	48028 33883 244 2721619 1.4 105.9 1046 -1.2592328034341 1.2802798253717 -0.26745434598997 316.44484037949
15	81911 32236 180 2721619 1.3 105.9 1047 31.160215385095 31.289876849744 32692.809818273 1020841.8765692
14	114147 32242 116 2721619 1.2 105.9 1048 11667.648935557 13718.610900837 13211973.979699 166957732834.69
13	146389 32262 116 2721619 1.2 105.9 1048 13602.500475297 16108.676825679 15633905.799514 233755051221.76
24	178651 31844 244 2721619 1.4 105.9 1046 -1.7716344503562 14.827239623711 5855.0500428217 47160.965338771
23	210495 33859 244 2721619 1.4 105.9 1046 -1.2598588485504 1.2438054440078 -0.52973421672359 293.05832992109
22	244354 32193 180 2721619 1.3 105.9 1047 31.16024968538 31.289973095939 32690.746367529 1020712.9122403
21	276547 32245 116 2721619 1.2 105.9 1048 11664.630156186 13716.032413023 13208347.10647 166866126642.94
20	308792 32239 116 2721619 1.2 105.9 1048 13603.852673132 16110.744026696 15636398.035232 233830056805.95
38	341031 32074 1476 2798973 3 107.5 1046 -1.7408923157721 14.93295165962 5817.3967272401 47096.677427187
37	373105 33958 1476 2798973 3 107.5 1046 -1.2765228000935 1.2576659739949 -0.32433713660574 290.54091425782
36	407063 32304 1308 2798973 2.9 107.5 1047 31.160111452104 31.289980451211 32691.650316936 1020769.3657493
35	439367 32343 1142 2798973 2.8 107.5 1048 11667.648935557 13718.531222418 13211959.533202 166957316346.74
34	471710 32317 1142 2798973 2.8 107.5 1048 13602.500475297 16108.588958618 15633910.613073 233755133721.02
vector 279  RSUScenario.node[39].veinsmobility  posx  ETV
vector 280  RSUScenario.node[39].veinsmobility  posy  ETV
vector 281  RSUScenario.node[39].veinsmobility  speed  ETV
vector 282  RSUScenario.node[39].veinsmobility  acceleration  ETV
vector 283  RSUScenario.node[39].veinsmobility  co2emission  ETV
vector 286  RSUScenario.node[40].veinsmobility  posx  ETV
vector 287  RSUScenario.node[40].veinsmobility  posy  ETV
vector 288  RSUScenario.node[40].veinsmobility  speed  ETV
vector 289  RSUScenario.node[40].veinsmobility  acceleration  ETV
vector 290  RSUScenario.node[40].veinsmobility  co2emission  ETV
vector 293  RSUScenario.node[41].veinsmobility  posx  ETV
vector 294  RSUScenario.node[41].veinsmobility  posy  ETV
vector 295  RSUScenario.node[41].veinsmobility  speed  ETV
vector 296  RSUScenario.node[41].veinsmobility  acceleration  ETV
vector 297  RSUScenario.node[41].veinsmobility  co2emission  ETV
vector 300  RSUScenario.node[42].veinsmobility  posx  ETV
vector 301  RSUScenario.node[42].veinsmobility  posy  ETV
vector 302  RSUScenario.node[42].veinsmobility  speed  ETV
vector 303  RSUScenario.node[42].veinsmobility  acceleration  ETV
vector 304  RSUScenario.node[42].veinsmobility  co2emission  ETV
31	505251 36463 1476 3545263 3 122.2 1193 -1.7562964154239 21.68182659433 7262.8171090449 66422.999853478
30	541714 38616 1476 3545263 3 122.2 1193 -4.2945523763654 2.5999280445278 286.82242194344 1588.8391060798
29	580330 37107 1308 3545263 2.9 122.2 1194 2.5170211885758 31.289952244477 32719.176100633 972915.95387402
28	617437 37142 1142 3545263 2.8 122.2 1195 11670.716993164 13720.382019216 14935797.90981 187175990833.81
27	654579 37148 1142 3545263 2.8 122.2 1195 13601.276444125 16110.629963933 17649563.392224 261399235725.02
vector 307  RSUScenario.node[43].veinsmobility  posx  ETV
vector 308  RSUScenario.node[43].veinsmobility  posy  ETV
vector 309  RSUScenario.node[43].veinsmobility  speed  ETV
vector 310  RSUScenario.node[43].veinsmobility  acceleration  ETV
vector 311  RSUScenario.node[43].veinsmobility  co2emission  ETV
vector 314  RSUScenario.node[44].veinsmobility  posx  ETV
vector 315  RSUScenario.node[44].veinsmobility  posy  ETV
52	692149 36868 11117 3828419 7.5 127.5 1201 -1.794669692812 23.767186276807 7217.8145281147 67435.375506636
51	729017 39101 11117 3828419 7.5 127.5 1201 -3.8348427419541 2.5999212590512 309.90541176628 1435.5832415378
50	768118 37613 10801 3828419 7.4 127.5 1202 0.25956810897705 31.289831382905 32709.858705657 973079.24339333
49	805731 37647 10485 3828419 7.3 127.5 1203 11670.716993164 13719.752890182 15028088.047986 188239173776.46
48	843378 37617 10485 3828419 7.3 127.5 1203 13601.276444125 16109.936178584 17756710.17377 262831830041.59
vector 316  RSUScenario.node[44].veinsmobility  speed  ETV
vector 317  RSUScenario.node[44].veinsmobility  acceleration  ETV
vector 318  RSUScenario.node[44].veinsmobility  co2emission  ETV
45	881185 38608 4604 4059479 4.8 131.8 1271 -1.6499930210843 24.352140443448 7340.3366820197 67182.323386796
44	919793 41348 4604 4059479 4.8 131.8 1271 -4.0548900865339 2.599904193962 309.76491834326 1707.2231575905
43	961141 39791 4369 4059479 4.7 131.8 1272 0.046491106722312 31.289783729354 32706.353113741 968642.69472941
42	1000932 39786 4134 4059479 4.6 131.8 1273 11670.716993164 13719.518489776 15848981.154885 197865388524.24
41	1040718 39785 4134 4059479 4.6 131.8 1273 13601.276444125 16109.677688578 18717536.997009 276019487103.99
66	1080503 36946 30783 4125316 12.8 133.1 1204 -1.7029823328614 22.79292347 7261.4528929536 68268.843715898
65	1117449 39368 30783 4125316 12.8 133.1 1204 -3.5871177923014 2.5990679510171 309.14714597067 1385.8734762786
64	1156817 37894 30269 4125316 12.7 133.1 1205 0.25808881941368 31.289426738252 32716.544129784 970491.90286265
63	1194711 37894 29755 4125316 12.6 133.1 1206 11670.716993164 13720.207044793 15063664.511174 188661069748.15
62	1232605 37899 29755 4125316 12.6 133.1 1206 13601.276444125 16110.437007187 17799656.305398 263448656096.16
vector 321  RSUScenario.node[45].veinsmobility  posx  ETV
vector 322  RSUScenario.node[45].veinsmobility  posy  ETV
vector 323  RSUScenario.node[45].veinsmobility  speed  ETV
vector 324  RSUScenario.node[45].veinsmobility  acceleration  ETV
vector 325  RSUScenario.node[45].veinsmobility  co2emission  ETV
vector 328  RSUScenario.node[46].veinsmobility  posx  ETV
vector 329  RSUScenario.node[46].veinsmobility  posy  ETV
vector 330  RSUScenario.node[46].veinsmobility  speed  ETV
vector 331  RSUScenario.node[46].veinsmobility  acceleration  ETV
vector 332  RSUScenario.node[46].veinsmobility  co2emission  ETV
59	1271116 39728 19526 4466858 10.1 139.9 1299 -1.7807481800683 22.188492080196 7331.0154768805 65569.862968408
58	1310844 42566 19526 4466858 10.1 139.9 1299 -4.0611893244971 2.5964858214138 309.30609671851 1704.2524269064
57	1353410 40972 19116 4466858 10 139.9 1300 0.0089422332260266 31.289936781079 32695.056629421 967823.07174491
56	1394382 40946 18705 4466858 9.9 139.9 1301 11670.716993164 13718.763155326 16176439.715656 201693727901.51
55	1435328 40943 18705 4466858 9.9 139.9 1301 13601.276444125 16108.844727538 19100444.18346 281254006571.64
87	1476271 37716 86038 4576101 21.3 142.1 1209 -1.678218161432 23.640298033052 7194.8973771641 65037.876802197
86	1513987 39872 86038 4576101 21.3 142.1 1209 -4.4175831163799 2.5938282394782 310.21972548333 1470.6381421619
85	1553859 38314 85137 4576101 21.2 142.1 1210 0.25902033208427 31.289606555924 32719.594999045 976252.58900348
84	1592173 38336 84236 4576101 21.1 142.1 1211 11670.716993164 13720.404661968 15121463.768093 189330254315.12
83	1630509 38325 84236 4576101 21.1 142.1 1211 13601.276444125 16110.654933706 17865186.030521 264304382792.83
vector 335  RSUScenario.node[47].veinsmobility  posx  ETV
vector 336  RSUScenario.node[47].veinsmobility  posy  ETV
vector 337  RSUScenario.node[47].veinsmobility  speed  ETV
vector 338  RSUScenario.node[47].veinsmobility  acceleration  ETV
vector 339  RSUScenario.node[47].veinsmobility  co2emission  ETV
73	1669140 40491 44387 4858046 15.4 147.9 1326 -1.7494375713763 23.690713749455 7349.1951599048 66354.973928642
72	1709631 43626 44387 4858046 15.4 147.9 1326 -3.617212522109 2.599146607321 309.19614852518 1710.2803025067
71	1753257 42042 43756 4858046 15.3 147.9 1327 0.010577104895261 31.289745033977 32706.172160881 966713.45184423
70	1795299 41970 43125 4858046 15.2 147.9 1328 11670.716993164 13717.069752448 16492190.488121 205383568454.41
69	1837269 41976 43125 4858046 15.2 147.9 1328 13601.276444125 16111.887994256 19472735.085964 286393210395.24
10	1879245 43256 24 4881480 0.3 148.4 1482 -1.7564171646896 22.246191835544 7624.7760069727 67377.086386737
9	1922501 42362 24 4881480 0.3 148.4 1482 -4.5 2.5753091214458 309.62131169192 2112.8581620812
8	1964863 41330 14 4881480 0.2 148.4 1483 0 31.289894360469 32714.01450136 969760.78972126
7	2006193 44973 4 4881480 0.1 148.4 1484 11670.716993164 13720.034332791 18326360.642825 226954588723.73
6	2051166 44951 4 4881480 0.1 148.4 1484 13601.276444125 16110.246545373 21614884.536965 315805093771.08
101	2096117 39070 146310 4917535 27.3 149.2 1220 -1.7044167675802 22.062442014162 7277.1883963533 67730.601779391
100	2135187 41525 146310 4917535 27.3 149.2 1220 -3.5169863572481 2.5928364263615 310.14055394133 1376.2577567077
99	2176712 38785 145091 4917535 27.2 149.2 1221 0.2483948068053 31.289970024223 32716.588131612 969837.95980885
98	2215497 38814 143872 4917535 27.1 149.2 1222 11670.716993164 13717.763270506 15249528.864085 190817185306.77
97	2254311 38834 143872 4917535 27.1 149.2 1222 13601.276444125 16112.652799045 18018247.106594 266437983627.96
vector 342  RSUScenario.node[48].veinsmobility  posx  ETV
vector 343  RSUScenario.node[48].veinsmobility  posy  ETV
vector 344  RSUScenario.node[48].veinsmobility  speed  ETV
vector 345  RSUScenario.node[48].veinsmobility  acceleration  ETV
vector 346  RSUScenario.node[48].veinsmobility  co2emission  ETV
94	2293451 39332 114239 5020360 24.3 151.5 1273 -1.726227480482 22.83744438053 7300.9540690136 66010.12581157
93	2332783 42131 114239 5020360 24.3 151.5 1273 -3.8492688376361 2.5973159789806 310.02609326512 1558.2411834537
92	2374914 40535 113185 5020360 24.2 151.5 1274 0.010410139816174 31.28997836269 32695.816338723 974839.50159764
91	2415449 40498 112131 5020360 24.1 151.5 1275 11670.716993164 13718.809091527 15869091.629171 198060445437.46
90	2455947 40501 112131 5020360 24.1 151.5 1275 13601.276444125 16108.895384655 18739157.976967 276235080227.07
115	2496448 38901 225505 5116624 33.3 153.7 1205 -1.7756793524076 22.603919913972 7102.0287898489 63624.071019248
114	2535349 41225 225505 5116624 33.3 153.7 1205 -3.2593765101435 2.5915272921789 309.69606523354 1212.0714830456
113	2576574 39629 223920 5116624 33.2 153.7 1206 0.25809441138431 31.289936174387 32716.117108727 978069.46871477
112	2616203 39661 222335 5116624 33.1 153.7 1207 11670.716993164 13720.174681303 15073812.603785 188762214414.07
111	2655864 39652 222335 5116624 33.1 153.7 1207 13601.276444125 16110.401317664 17809100.497889 263517935154.63
vector 349  RSUScenario.node[49].veinsmobility  posx  ETV
vector 350  RSUScenario.node[49].veinsmobility  posy  ETV
vector 351  RSUScenario.node[49].veinsmobility  speed  ETV
vector 352  RSUScenario.node[49].veinsmobility  acceleration  ETV
vector 353  RSUScenario.node[49].veinsmobility  co2emission  ETV
vector 356  RSUScenario.node[50].veinsmobility  posx  ETV
vector 357  RSUScenario.node[50].veinsmobility  posy  ETV
vector 358  RSUScenario.node[50].veinsmobility  speed  ETV
vector 359  RSUScenario.node[50].veinsmobility  acceleration  ETV
vector 360  RSUScenario.node[50].veinsmobility  co2emission  ETV
vector 363  RSUScenario.node[51].veinsmobility  posx  ETV
vector 364  RSUScenario.node[51].veinsmobility  posy  ETV
vector 365  RSUScenario.node[51].veinsmobility  speed  ETV
vector 366  RSUScenario.node[51].veinsmobility  acceleration  ETV
vector 367  RSUScenario.node[51].veinsmobility  co2emission  ETV
108	2696434 41720 183241 5417279 30.3 160.5 1303 -1.7815927925529 23.111625127229 7291.5184782441 66253.077282199
107	2738154 44558 183241 5417279 30.3 160.5 1303 -3.7510675651207 2.5941829805495 309.89819853002 1575.4811577243
106	2782712 42976 181845 5417279 30.2 160.5 1304 0.0035782027332314 31.28965975024 32712.888064644 974556.69973168
105	2825688 42901 180449 5417279 30.1 160.5 1305 11670.716993164 13719.956996899 16221473.939342 202202110463.15
104	2868589 42896 180449 5417279 30.1 160.5 1305 13601.276444125 16110.161261583 19150292.412326 281871991135.91
129	2911485 39474 327079 5471626 39.3 161.7 1225 -1.7762428189617 23.033993062038 7219.6549789941 67247.567839048
128	2950959 41964 327079 5471626 39.3 161.7 1225 -3.5570486158953 2.5852954639749 309.20148131116 1318.450726275
127	2992923 40415 325152 5471626 39.2 161.7 1226 0.25680212210654 31.28963251075 32691.857486197 973064.63628198
126	3033338 40438 323225 5471626 39.1 161.7 1227 11670.716993164 13718.548922066 15306876.44251 191474965797.09
125	3073776 40458 323225 5471626 39.1 161.7 1227 13601.276444125 16108.608477279 18082232.396251 267244488467.11
vector 370  RSUScenario.node[52].veinsmobility  posx  ETV
vector 371  RSUScenario.node[52].veinsmobility  posy  ETV
vector 372  RSUScenario.node[52].veinsmobility  speed  ETV
vector 373  RSUScenario.node[52].veinsmobility  acceleration  ETV
vector 374  RSUScenario.node[52].veinsmobility  co2emission  ETV
vector 377  RSUScenario.node[53].veinsmobility  posx  ETV
vector 378  RSUScenario.node[53].veinsmobility  posy  ETV
vector 379  RSUScenario.node[53].veinsmobility  speed  ETV
vector 380  RSUScenario.node[53].veinsmobility  acceleration  ETV
vector 381  RSUScenario.node[53].veinsmobility  co2emission  ETV
143	3114846 39024 439676 5635922 45.3 165.4 1202 -1.7613166876141 23.748373684221 7103.40749554 65618.974844916
142	3153870 41315 439676 5635922 45.3 165.4 1202 -2.7194537047821 2.5981381969526 309.48051098467 1214.9284710288
141	3195185 39789 437611 5635922 45.2 165.4 1203 0.25139466654928 31.289797694366 32692.22136979 978540.097558
140	3234974 39800 435546 5635922 45.1 165.4 1204 11670.716993164 13718.571848158 15037095.809713 188310884510.28
139	3274774 39820 435546 5635922 45.1 165.4 1204 13601.276444125 16108.633759512 17765731.233753 262888217456.85
80	3314594 44212 62950 5732625 18.3 167.6 1494 -1.7703330416857 23.429519977225 7470.6896542524 66308.26320554
79	3358806 44924 62950 5732625 18.3 167.6 1494 -4.5 2.5951221564319 309.9103263619 1749.6513201778
78	3403730 43678 62190 5732625 18.2 167.6 1495 0 31.289705653847 32713.071572383 974070.75549894
77	3447408 47592 61430 5732625 18.1 167.6 1496 11670.716993164 13719.969408467 18461114.315394 228464836543.03
76	3495000 47597 61430 5732625 18.1 167.6 1496 13601.276444125 16110.174948703 21766690.850746 317711878216.72
vector 384  RSUScenario.node[54].veinsmobility  posx  ETV
vector 385  RSUScenario.node[54].veinsmobility  posy  ETV
vector 386  RSUScenario.node[54].veinsmobility  speed  ETV
vector 387  RSUScenario.node[54].veinsmobility  acceleration  ETV
vector 388  RSUScenario.node[54].veinsmobility  co2emission  ETV
122	3542903 42192 273463 5785211 36.3 168.8 1326 -1.7850439239196 23.921698787813 7364.1561859116 68435.713589665
121	3585095 45363 273463 5785211 36.3 168.8 1326 -3.6809184617766 2.5972369858995 310.21823130271 1586.4354505676
120	3630458 43883 271677 5785211 36.2 168.8 1327 0.020262644656805 31.289662595976 32692.615450231 969231.16796914
119	3674341 43823 269891 5785211 36.1 168.8 1328 11670.716993164 13718.593222027 16491840.719842 205378931158.93
118	3718164 43804 269891 5785211 36.1 168.8 1328 13601.276444125 16108.657329998 19464110.761595 286150092747.72
136	3761968 41016 382865 5827572 42.3 169.8 1276 -1.770715235756 24.512140261673 7204.4904964562 64426.831598119
135	3802984 43852 382865 5827572 42.3 169.8 1276 -3.0103588240466 2.5974121860694 309.09222574718 1347.4594145989
134	3846836 42252 380911 5827572 42.2 169.8 1277 0.16621129165392 31.28993709066 32699.115845027 971345.74840041
133	3889088 42233 378957 5827572 42.1 169.8 1278 11670.716993164 13716.59618063 15903686.403616 198456143757.84
132	3931321 42229 378957 5827572 42.1 169.8 1278 13601.276444125 16111.365743984 18780805.002839 276817455663.77
vector 391  RSUScenario.node[55].veinsmobility  posx  ETV
vector 392  RSUScenario.node[55].veinsmobility  posy  ETV
vector 393  RSUScenario.node[55].veinsmobility  speed  ETV
vector 394  RSUScenario.node[55].veinsmobility  acceleration  ETV
vector 395  RSUScenario.node[55].veinsmobility  co2emission  ETV
157	3973856 39345 570224 5911616 51.3 171.8 1206 -1.7723138700638 21.914922132055 7123.7338533044 65728.18220188
156	4013201 41558 570224 5911616 51.3 171.8 1206 -3.3666796848948 2.5982197670499 309.27600288673 1343.8562661035
155	4054759 40038 567739 5911616 51.2 171.8 1207 0.25963777161622 31.289799459716 32695.412945602 981307.14842449
154	4094797 40064 565236 5911616 51.1 171.8 1208 11670.716993164 13718.786999887 15083245.446815 188842888996.25
153	4134861 40055 565236 5911616 51.1 171.8 1208 13601.276444125 16108.871022632 17819868.312226 263621886332.38
vector 398  RSUScenario.node[56].veinsmobility  posx  ETV
vector 399  RSUScenario.node[56].veinsmobility  posy  ETV
vector 400  RSUScenario.node[56].veinsmobility  speed  ETV
vector 401  RSUScenario.node[56].veinsmobility  acceleration  ETV
vector 402  RSUScenario.node[56].veinsmobility  co2emission  ETV
vector 405  RSUScenario.node[57].veinsmobility  posx  ETV
vector 406  RSUScenario.node[57].veinsmobility  posy  ETV
vector 407  RSUScenario.node[57].veinsmobility  speed  ETV
vector 408  RSUScenario.node[57].veinsmobility  acceleration  ETV
vector 409  RSUScenario.node[57].veinsmobility  co2emission  ETV
171	4175528 39361 726761 6161050 57.3 177.6 1204 -1.7658819920394 24.233978625539 7081.905285028 65466.772691758
170	4214889 41615 726761 6161050 57.3 177.6 1204 -3.1145013518042 2.5864859037334 309.2289246168 1230.903722223
169	4256504 40100 723871 6161050 57.2 177.6 1205 0.25511248833244 31.289924988581 32691.113493975 981746.20327355
168	4296604 40101 720966 6161050 57.1 177.6 1206 11670.716993164 13718.498888057 15059790.355184 188568104855.49
167	4336705 40085 720966 6161050 57.1 177.6 1206 13601.276444125 16108.553301217 17791551.933746 263220133908.2
vector 412  RSUScenario.node[58].veinsmobility  posx  ETV
vector 413  RSUScenario.node[58].veinsmobility  posy  ETV
vector 414  RSUScenario.node[58].veinsmobility  speed  ETV
vector 415  RSUScenario.node[58].veinsmobility  acceleration  ETV
vector 416  RSUScenario.node[58].veinsmobility  co2emission  ETV
vector 419  RSUScenario.node[59].veinsmobility  posx  ETV
vector 420  RSUScenario.node[59].veinsmobility  posy  ETV
vector 421  RSUScenario.node[59].veinsmobility  speed  ETV
vector 422  RSUScenario.node[59].veinsmobility  acceleration  ETV
vector 423  RSUScenario.node[59].veinsmobility  co2emission  ETV
164	4377402 41708 645458 6379431 54.3 182.4 1282 -1.7955913361365 24.554844118778 7211.0240322469 66371.590103649
163	4419110 44322 645458 6379431 54.3 182.4 1282 -3.6219724576256 2.5961772447685 309.80634955416 1411.1755080816
162	4463432 42773 642745 6379431 54.2 182.4 1283 0.0020026044022595 31.289999478573 32719.498052007 980600.76640884
161	4506205 42685 640032 6379431 54.1 182.4 1284 11670.716993164 13720.401362943 15974276.811236 199293400767.33
160	4548890 42659 640032 6379431 54.1 182.4 1284 13601.276444125 16110.651295636 18859603.784606 277850135974.13
vector 426  RSUScenario.node[60].veinsmobility  posx  ETV
vector 427  RSUScenario.node[60].veinsmobility  posy  ETV
vector 428  RSUScenario.node[60].veinsmobility  speed  ETV
vector 429  RSUScenario.node[60].veinsmobility  acceleration  ETV
vector 430  RSUScenario.node[60].veinsmobility  co2emission  ETV
185	4591855 39599 905482 6470877 63.3 184.4 1212 -1.7986004278604 24.178561022987 7129.7891637757 65310.691387271
184	4631454 42015 905482 6470877 63.3 184.4 1212 -2.7721409846237 2.5917370196432 309.44722725168 1170.9036694289
183	4673469 40462 902199 6470877 63.2 184.4 1213 0.25819678939763 31.289873845768 32709.487499585 982479.24666407
182	4713931 40481 898931 6470877 63.1 184.4 1214 11670.716993164 13719.731130701 15154353.258337 189688181896.49
181	4754412 40510 898931 6470877 63.1 184.4 1214 13601.276444125 16109.912182856 17901743.19083 264741250042.47
vector 433  RSUScenario.node[61].veinsmobility  posx  ETV
vector 434  RSUScenario.node[61].veinsmobility  posy  ETV
vector 435  RSUScenario.node[61].veinsmobility  speed  ETV
vector 436  RSUScenario.node[61].veinsmobility  acceleration  ETV
vector 437  RSUScenario.node[61].veinsmobility  co2emission  ETV
vector 440  RSUScenario.node[62].veinsmobility  posx  ETV
vector 441  RSUScenario.node[62].veinsmobility  posy  ETV
vector 442  RSUScenario.node[62].veinsmobility  speed  ETV
vector 443  RSUScenario.node[62].veinsmobility  acceleration  ETV
vector 444  RSUScenario.node[62].veinsmobility  co2emission  ETV
199	4795534 39751 1106267 6748252 69.3 190.3 1211 -1.7598836902275 22.414444857355 7070.5692888657 64728.67246264
198	4835285 42139 1106267 6748252 69.3 190.3 1211 -2.6985893530978 2.599973961059 309.32025660321 1151.1346704395
197	4877424 40527 1102672 6748252 69.2 190.3 1212 0.2522267021325 31.289831926851 32708.74603856 984135.69496034
196	4917951 40563 1097042 6748252 69.1 190.3 1213 11670.716993164 13719.682591107 15142176.376071 189539845321.24
195	4958514 40566 1097042 6748252 69.1 190.3 1213 13601.276444125 16109.858654792 17887265.696559 264531890476.88
vector 447  RSUScenario.node[63].veinsmobility  posx  ETV
vector 448  RSUScenario.node[63].veinsmobility  posy  ETV
vector 449  RSUScenario.node[63].veinsmobility  speed  ETV
vector 450  RSUScenario.node[63].veinsmobility  acceleration  ETV
vector 451  RSUScenario.node[63].veinsmobility  co2emission  ETV
vector 454  RSUScenario.node[64].veinsmobility  posx  ETV
vector 455  RSUScenario.node[64].veinsmobility  posy  ETV
vector 456  RSUScenario.node[64].veinsmobility  speed  ETV
vector 457  RSUScenario.node[64].veinsmobility  acceleration  ETV
vector 458  RSUScenario.node[64].veinsmobility  co2emission  ETV
192	4999692 41804 1002739 6953596 66.3 194.5 1283 -1.7569502143107 23.735987870421 7182.6840112476 65766.437406765
191	5041496 44640 1002739 6953596 66.3 194.5 1283 -3.2017714777394 2.5952301465166 309.34353416676 1335.9912312884
190	5086136 43020 999336 6953596 66.2 194.5 1284 0.0060319371217736 31.289939378768 32692.147145978 980910.33754348
189	5129156 42972 995924 6953596 66.1 194.5 1285 11670.716993164 13718.567693437 15983423.730725 199366861302.85
188	5172128 42957 995924 6953596 66.1 194.5 1285 13601.276444125 16108.629177806 18869570.067406 277930454514.08
vector 461  RSUScenario.node[65].veinsmobility  posx  ETV
vector 462  RSUScenario.node[65].veinsmobility  posy  ETV
vector 463  RSUScenario.node[65].veinsmobility  speed  ETV
vector 464  RSUScenario.node[65].veinsmobility  acceleration  ETV
vector 465  RSUScenario.node[65].veinsmobility  co2emission  ETV
178	5215391 44785 813274 7133968 60.3 198.1 1379 -1.741546606845 22.527628320607 7315.6383206252 64753.177637726
177	5260176 48116 813274 7133968 60.3 198.1 1379 -3.4066261070809 2.59615012702 309.77945649483 1475.8387782633
176	5308292 46407 810192 7133968 60.2 198.1 1380 3.0815660065447e-06 31.289950681196 32718.522989949 979796.38313937
175	5354699 46040 807110 7133968 60.1 198.1 1381 11670.716993164 13717.895682515 17107071.444298 212518118368.64
174	5400739 46077 807110 7133968 60.1 198.1 1381 13601.276444125 16112.798821687 20185090.46339 295966714984.51
150	5446816 46381 501734 7148824 48.3 198.4 1502 -1.7928698702356 24.425315867027 7475.0124527639 66678.032425686
149	5493197 47331 501734 7148824 48.3 198.4 1502 -4.5 2.594089344718 310.3017356381 1579.714626022
148	5540528 45924 499456 7148824 48.2 198.4 1503 0 31.289872276494 32692.509465375 978062.26269391
147	5586452 50008 497178 7148824 48.1 198.4 1504 11670.716993164 13718.585866633 18548711.234513 229416755186.72
146	5636460 49993 497178 7148824 48.1 198.4 1504 13601.276444125 16108.649218682 21864281.584191 318880892358.2
vector 468  RSUScenario.node[66].veinsmobility  posx  ETV
vector 469  RSUScenario.node[66].veinsmobility  posy  ETV
213	5686569 40603 1328579 7191411 75.3 199.3 1241 -1.6831186016872 24.027904020618 7195.9982660529 67469.947778905
212	5727172 43190 1328579 7191411 75.3 199.3 1241 -2.5985136224071 2.5701038678875 309.65041699614 1185.2330994792
211	5770362 41599 1324606 7191411 75.2 199.3 1242 0.25505252936669 31.289650448374 32697.657234022 978376.58116704
210	5811961 41622 1320633 7191411 75.1 199.3 1243 11670.716993164 13716.494431607 15491469.67347 193601389176.67
209	5853583 41636 1320633 7191411 75.1 199.3 1243 13601.276444125 16111.253536177 18298491.88291 270171669462.16
vector 470  RSUScenario.node[66].veinsmobility  speed  ETV
vector 471  RSUScenario.node[66].veinsmobility  acceleration  ETV
vector 472  RSUScenario.node[66].veinsmobility  co2emission  ETV
206	5895409 41380 1214717 7210492 72.3 199.7 1275 -1.7861214647732 21.311363676797 7286.6304108631 68400.147103337
205	5936789 44292 1214717 7210492 72.3 199.7 1275 -2.8953100781556 2.5998708465137 309.92614012922 1403.4923505282
204	5981081 42726 1210897 7210492 72.2 199.7 1276 0.25744544171495 31.289732402391 32703.379025766 975714.03346654
203	6023807 42745 1207065 7210492 72.1 199.7 1277 11670.716993164 13719.317747294 15893102.17174 198351313919.91
202	6066552 42737 1207065 7210492 72.1 199.7 1277 13601.276444125 16109.45631556 18762114.94101 276489877876.47
vector 475  RSUScenario.node[67].veinsmobility  posx  ETV
vector 476  RSUScenario.node[67].veinsmobility  posy  ETV
vector 477  RSUScenario.node[67].veinsmobility  speed  ETV
vector 478  RSUScenario.node[67].veinsmobility  acceleration  ETV
vector 479  RSUScenario.node[67].veinsmobility  co2emission  ETV
227	6109595 39941 1571684 7318837 81.3 202.1 1209 -1.7875244603378 22.442931629319 7043.6602731714 64164.141636159
226	6149536 42137 1571684 7318837 81.3 202.1 1209 -3.0966676083452 2.595652025522 309.79702790649 1143.4022009937
225	6191673 40577 1567351 7318837 81.2 202.1 1210 0.249197902794 31.289923923542 32712.053364889 985960.74514723
224	6232250 40612 1563012 7318837 81.1 202.1 1211 11670.716993164 13719.901697926 15118392.769714 189257188912.08
223	6272862 40617 1563012 7318837 81.1 202.1 1211 13601.276444125 16110.100279471 17859642.978129 264151799373.51
vector 482  RSUScenario.node[68].veinsmobility  posx  ETV
vector 483  RSUScenario.node[68].veinsmobility  posy  ETV
vector 484  RSUScenario.node[68].veinsmobility  speed  ETV
vector 485  RSUScenario.node[68].veinsmobility  acceleration  ETV
vector 486  RSUScenario.node[68].veinsmobility  co2emission  ETV
vector 489  RSUScenario.node[69].veinsmobility  posx  ETV
vector 490  RSUScenario.node[69].veinsmobility  posy  ETV
vector 491  RSUScenario.node[69].veinsmobility  speed  ETV
vector 492  RSUScenario.node[69].veinsmobility  acceleration  ETV
vector 493  RSUScenario.node[69].veinsmobility  co2emission  ETV
241	6314091 40008 1827344 7610921 87.3 208.5 1213 -1.7803858936892 24.519075981298 7050.0440809362 64352.080616032
240	6354099 42416 1827344 7610921 87.3 208.5 1213 -2.4927814241819 2.5929068060825 309.94709484721 1061.5787814816
239	6396515 40799 1822873 7610921 87.2 208.5 1214 0.24763583996589 31.289975675407 32703.710367647 987697.84150494
238	6437314 40804 1818402 7610921 87.1 208.5 1215 11670.716993164 13719.340516775 15164487.928423 189787674850.84
237	6478118 40806 1818402 7610921 87.1 208.5 1215 13601.276444125 16109.481425087 17912456.486812 264846085406.27
vector 496  RSUScenario.node[70].veinsmobility  posx  ETV
vector 497  RSUScenario.node[70].veinsmobility  posy  ETV
vector 498  RSUScenario.node[70].veinsmobility  speed  ETV
vector 499  RSUScenario.node[70].veinsmobility  acceleration  ETV
vector 500  RSUScenario.node[70].veinsmobility  co2emission  ETV
vector 503  RSUScenario.node[71].veinsmobility  posx  ETV
vector 504  RSUScenario.node[71].veinsmobility  posy  ETV
vector 505  RSUScenario.node[71].veinsmobility  speed  ETV
vector 506  RSUScenario.node[71].veinsmobility  acceleration  ETV
vector 507  RSUScenario.node[71].veinsmobility  co2emission  ETV
234	6519536 42303 1697990 7828365 84.3 213 1288 -1.7291115922807 23.77172558842 7142.5654741764 64256.758693448
233	6561839 45096 1697990 7828365 84.3 213 1288 -3.5267972464764 2.5922401280143 309.64754604614 1182.3521822493
232	6606935 43428 1693624 7828365 84.2 213 1289 0.00064892269976081 31.289795709967 32707.9240405 985683.23806669
231	6650363 43311 1689258 7828365 84.1 213 1290 11670.716993164 13719.624722085 16041548.707889 200044787902.75
230	6693674 43303 1689258 7828365 84.1 213 1290 13601.276444125 16109.794838505 18935971.035867 278814672570.26
255	6736977 40026 2101132 7907904 93.3 214.6 1214 -1.7686879634989 24.022168871243 7083.2203232073 65422.336613469
254	6777003 42480 2101132 7907904 93.3 214.6 1214 -1.9315905522032 2.5892377931392 310.3274025156 1021.1582176904
253	6819483 40866 2096235 7907904 93.2 214.6 1215 0.25538644825062 31.289882012645 32712.09372661 989533.30001438
252	6860349 40901 2091338 7907904 93.1 214.6 1216 11670.716993164 13719.900431085 15176323.592453 189928802531.02
251	6901250 40916 2091338 7907904 93.1 214.6 1216 13601.276444125 16110.098882435 17925875.117318 265027687099.04
vector 510  RSUScenario.node[72].veinsmobility  posx  ETV
vector 511  RSUScenario.node[72].veinsmobility  posy  ETV
vector 512  RSUScenario.node[72].veinsmobility  speed  ETV
vector 513  RSUScenario.node[72].veinsmobility  acceleration  ETV
vector 514  RSUScenario.node[72].veinsmobility  co2emission  ETV
vector 517  RSUScenario.node[73].veinsmobility  posx  ETV
vector 518  RSUScenario.node[73].veinsmobility  posy  ETV
vector 519  RSUScenario.node[73].veinsmobility  speed  ETV
vector 520  RSUScenario.node[73].veinsmobility  acceleration  ETV
vector 521  RSUScenario.node[73].veinsmobility  co2emission  ETV
vector 524  RSUScenario.node[74].veinsmobility  posx  ETV
vector 525  RSUScenario.node[74].veinsmobility  posy  ETV
vector 526  RSUScenario.node[74].veinsmobility  speed  ETV
vector 527  RSUScenario.node[74].veinsmobility  acceleration  ETV
vector 528  RSUScenario.node[74].veinsmobility  co2emission  ETV
248	6943084 43100 1960672 8304912 90.3 222.2 1320 -1.7266342132638 23.722588676001 7178.9777109932 64862.973360045
247	6986184 46242 1960672 8304912 90.3 222.2 1320 -2.5954423527574 2.5976485209074 309.31282092985 1283.4176299148
246	7032426 44539 1956000 8304912 90.2 222.2 1321 0.0022447157596504 31.28995088157 32704.776711286 985473.55442433
245	7076965 44446 1951328 8304912 90.1 222.2 1322 11670.716993164 13719.416198301 16414951.165109 204401474623.83
244	7121411 44434 1951328 8304912 90.1 222.2 1322 13601.276444125 16109.564884491 19371304.487377 284736308347.17
vector 531  RSUScenario.node[75].veinsmobility  posx  ETV
vector 532  RSUScenario.node[75].veinsmobility  posy  ETV
vector 533  RSUScenario.node[75].veinsmobility  speed  ETV
vector 534  RSUScenario.node[75].veinsmobility  acceleration  ETV
vector 535  RSUScenario.node[75].veinsmobility  co2emission  ETV
269	7166151 40725 2469558 8375677 100.8 223.5 1228 -1.7311088812448 21.676975890234 7105.9728992032 66743.369206935
268	7206876 43041 2469558 8375677 100.8 223.5 1228 -1.9469840876766 2.5922844279325 309.6305722901 1011.5406483993
267	7249917 41417 2464475 8375677 100.7 223.5 1229 0.24766296026693 31.289893932964 32715.323423032 985513.67581295
266	7291334 41448 2459380 8375677 100.6 223.5 1230 11670.716993164 13720.122521283 15340444.946253 191852902440.76
265	7332782 41452 2459380 8375677 100.6 223.5 1230 13601.276444125 16110.343797098 18118632.158219 267683556537.59
vector 538  RSUScenario.node[76].veinsmobility  posx  ETV
vector 539  RSUScenario.node[76].veinsmobility  posy  ETV
vector 540  RSUScenario.node[76].veinsmobility  speed  ETV
vector 541  RSUScenario.node[76].veinsmobility  acceleration  ETV
vector 542  RSUScenario.node[76].veinsmobility  co2emission  ETV
vector 545  RSUScenario.node[77].veinsmobility  posx  ETV
vector 546  RSUScenario.node[77].veinsmobility  posy  ETV
vector 547  RSUScenario.node[77].veinsmobility  speed  ETV
vector 548  RSUScenario.node[77].veinsmobility  acceleration  ETV
vector 549  RSUScenario.node[77].veinsmobility  co2emission  ETV
220	7374846 47133 1446824 8684004 78.3 229.1 1509 -1.7672818931392 23.993067475632 7360.2157588735 63834.609896752
219	7421979 48100 1446824 8684004 78.3 229.1 1509 -4.5 2.5790489699459 310.2283880096 1382.1176746156
218	7470079 46636 1442656 8684004 78.2 229.1 1510 0 31.289520357731 32698.055613163 983421.22611899
217	7516715 50442 1438488 8684004 78.1 229.1 1511 11670.716993164 13718.958345037 18626122.144879 230270575189.15
216	7567157 50742 1438488 8684004 78.1 229.1 1511 13601.276444125 16109.05997712 21949953.237885 319916184212.05
283	7617899 40070 2866036 8723259 108.9 229.8 1210 -1.7760160167357 24.306961959774 7067.1317221316 66128.538869738
282	7657969 42412 2866036 8723259 108.9 229.8 1210 -1.5844007963589 2.5967373353429 310.17735640164 1010.4244227153
281	7700381 40803 2861058 8723259 108.8 229.8 1211 0.25466796800541 31.289820479075 32702.787993734 990153.0516437
280	7741184 40832 2856080 8723259 108.7 229.8 1212 11670.716993164 13716.835576808 15127274.076241 189323125404.63
279	7782016 40852 2856080 8723259 108.7 229.8 1212 13601.276444125 16111.629747699 17871490.459814 264290573310.68
262	7822868 43574 2260579 8756090 96.6 230.4 1339 -1.748096118005 23.285711608439 7303.7004612561 68621.29834525
261	7866442 46843 2260579 8756090 96.6 230.4 1339 -2.8153988360916 2.5954757594048 309.77597384913 1279.3716710075
260	7913285 45212 2255565 8756090 96.5 230.4 1340 0.01952612659453 31.289896379919 32708.73947587 982426.56460937
259	7958497 45135 2250551 8756090 96.4 230.4 1341 11670.716993164 13719.679324185 16639176.93077 207049040361.24
258	8003632 45138 2250551 8756090 96.4 230.4 1341 13601.276444125 16109.855052125 19630538.500932 288273906596.19
vector 552  RSUScenario.node[78].veinsmobility  posx  ETV
vector 553  RSUScenario.node[78].veinsmobility  posy  ETV
vector 554  RSUScenario.node[78].veinsmobility  speed  ETV
vector 555  RSUScenario.node[78].veinsmobility  acceleration  ETV
vector 556  RSUScenario.node[78].veinsmobility  co2emission  ETV
276	8049076 41262 2701539 8829707 105.5 231.7 1263 -1.7709783132121 22.948172834914 7250.7957325975 68649.370984629
275	8090338 44211 2701539 8829707 105.5 231.7 1263 -2.5069341917368 2.5883636471117 310.08066221703 1172.1386931901
274	8134549 42632 2696519 8829707 105.4 231.7 1264 0.12418677056963 31.28967761504 32719.131584626 982551.87274848
273	8177181 42610 2691487 8829707 105.3 231.7 1265 11670.716993164 13720.37505424 15752380.650548 196703295633.99
272	8219791 42628 2691487 8829707 105.3 231.7 1265 13601.276444125 16110.622283158 18596367.870616 274204302101.4
vector 559  RSUScenario.node[79].veinsmobility  posx  ETV
vector 560  RSUScenario.node[79].veinsmobility  posy  ETV
vector 561  RSUScenario.node[79].veinsmobility  speed  ETV
vector 562  RSUScenario.node[79].veinsmobility  acceleration  ETV
vector 563  RSUScenario.node[79].veinsmobility  co2emission  ETV
vector 566  RSUScenario.node[80].veinsmobility  posx  ETV
vector 567  RSUScenario.node[80].veinsmobility  posy  ETV
vector 568  RSUScenario.node[80].veinsmobility  speed  ETV
vector 569  RSUScenario.node[80].veinsmobility  acceleration  ETV
vector 570  RSUScenario.node[80].veinsmobility  co2emission  ETV
297	8263031 40328 3242246 9154654 116.4 237.5 1212 -1.6604716759572 22.845612900079 7052.5545418763 64347.689133717
296	8303359 42492 3242246 9154654 116.4 237.5 1212 -3.1339391027961 2.5757097990252 309.86190279003 1023.8255414795
295	8345851 40873 3236998 9154654 116.3 237.5 1213 0.25395171341952 31.289804393246 32712.015604604 988901.48568827
294	8386724 40892 3231750 9154654 116.2 237.5 1214 11670.716993164 13719.898407199 15152877.771177 189653771881.17
293	8427616 40892 3231750 9154654 116.2 237.5 1214 13601.276444125 16110.096650552 17898769.64064 264660368180.09
vector 573  RSUScenario.node[81].veinsmobility  posx  ETV
vector 574  RSUScenario.node[81].veinsmobility  posy  ETV
vector 575  RSUScenario.node[81].veinsmobility  speed  ETV
vector 576  RSUScenario.node[81].veinsmobility  acceleration  ETV
vector 577  RSUScenario.node[81].veinsmobility  co2emission  ETV
vector 580  RSUScenario.node[82].veinsmobility  posx  ETV
vector 581  RSUScenario.node[82].veinsmobility  posy  ETV
vector 582  RSUScenario.node[82].veinsmobility  speed  ETV
vector 583  RSUScenario.node[82].veinsmobility  acceleration  ETV
vector 584  RSUScenario.node[82].veinsmobility  co2emission  ETV
311	8469120 40054 3624061 9556552 123.7 244.6 1210 -1.7883684942189 23.391404360148 7032.0616741537 63175.126627137
310	8509174 42473 3624061 9556552 123.7 244.6 1210 -1.9766610632802 2.5917878022228 309.42850699382 962.38661314827
309	8551647 40854 3618636 9556552 123.6 244.6 1211 0.16490432974831 31.289955156983 32694.692569593 990984.3581564
308	8592501 40838 3613211 9556552 123.5 244.6 1212 11670.716993164 13718.737669852 15128202.059894 189348181835.85
307	8633339 40844 3613211 9556552 123.5 244.6 1212 13601.276444125 16108.816622893 17869404.249914 264228055006.27
vector 587  RSUScenario.node[83].veinsmobility  posx  ETV
vector 588  RSUScenario.node[83].veinsmobility  posy  ETV
vector 589  RSUScenario.node[83].veinsmobility  speed  ETV
vector 590  RSUScenario.node[83].veinsmobility  acceleration  ETV
vector 591  RSUScenario.node[83].veinsmobility  co2emission  ETV
304	8674489 42393 3470149 9813151 120.8 249.1 1284 -1.7849411388689 23.603008958195 7154.1906684131 65133.89058157
303	8716882 45155 3470149 9813151 120.8 249.1 1284 -2.8090794274525 2.5979911802104 310.31014577622 1130.9596582933
302	8762037 43495 3464784 9813151 120.7 249.1 1285 0.00023660686096117 31.289814440855 32713.780481227 989171.41820101
301	8805532 43317 3459419 9813151 120.6 249.1 1286 11670.716993164 13720.013958537 15994124.96634 199483343197.85
300	8848849 43325 3459419 9813151 120.6 249.1 1286 13601.276444125 16110.224077235 18879649.321109 278023401771.24
vector 594  RSUScenario.node[84].veinsmobility  posx  ETV
vector 595  RSUScenario.node[84].veinsmobility  posy  ETV
vector 596  RSUScenario.node[84].veinsmobility  speed  ETV
vector 597  RSUScenario.node[84].veinsmobility  acceleration  ETV
vector 598  RSUScenario.node[84].veinsmobility  co2emission  ETV
vector 601  RSUScenario.node[85].veinsmobility  posx  ETV
vector 602  RSUScenario.node[85].veinsmobility  posy  ETV
325	8892596 40073 4160760 10131144 133.8 254.7 1210 -1.7432472209323 23.805372376186 7030.9537811705 64625.332842003
324	8932669 42470 4160760 10131144 133.8 254.7 1210 -1.2969858340686 2.5988095683744 309.18420839612 991.28700369546
323	8975139 40844 4155704 10131144 133.7 254.7 1211 0.24830183913535 31.289675940373 32690.239130524 990833.36452609
322	9015983 40866 4150648 10131144 133.6 254.7 1212 11670.716993164 13718.440927396 15127800.873978 189338092654.64
321	9056849 40849 4150648 10131144 133.6 254.7 1212 13601.276444125 16108.489383873 17868873.541568 264212515262.04
vector 603  RSUScenario.node[85].veinsmobility  speed  ETV
vector 604  RSUScenario.node[85].veinsmobility  acceleration  ETV
vector 605  RSUScenario.node[85].veinsmobility  co2emission  ETV
vector 608  RSUScenario.node[86].veinsmobility  posx  ETV
vector 609  RSUScenario.node[86].veinsmobility  posy  ETV
vector 610  RSUScenario.node[86].veinsmobility  speed  ETV
vector 611  RSUScenario.node[86].veinsmobility  acceleration  ETV
vector 612  RSUScenario.node[86].veinsmobility  co2emission  ETV
318	9098194 43515 3839362 10444429 127.7 260.1 1325 -1.7814217153202 24.319357572448 7202.7794164738 65720.913512974
317	9141709 46677 3839362 10444429 127.7 260.1 1325 -2.7956438141948 2.5977598710684 310.1740711113 1202.0887491658
316	9188386 44994 3833961 10444429 127.6 260.1 1326 0.00036701444085805 31.289829936156 32718.40208158 989715.96051035
315	9233380 44784 3828419 10444429 127.5 260.1 1327 11670.716993164 13720.325385671 16472966.713346 205076396334.51
314	9278164 44798 3828419 10444429 127.5 260.1 1327 13601.276444125 16110.567510093 19437755.794014 285621458197.48
290	9322962 47642 3058800 10685823 112.8 264.3 1516 -1.7627695684623 23.563763255834 7362.1109208989 63955.022527319
289	9370604 48773 3058800 10685823 112.8 264.3 1516 -4.5 2.5914313279639 309.14149692206 1278.7636811452
288	9419377 47193 3053681 10685823 112.7 264.3 1517 0 31.289926031071 32714.294612173 986968.42413995
287	9466570 51297 3048562 10685823 112.6 264.3 1518 11670.716993164 13720.056707549 18706514.465412 231195690868.94
286	9517867 50696 3048562 10685823 112.6 264.3 1518 13601.276444125 16110.271219611 22041356.051951 321110458341.42
339	9568563 40158 4671828 10725124 144.1 265 1210 -1.7643712641246 22.793290865927 7045.4716848524 64969.26961887
338	9608721 42570 4671828 10725124 144.1 265 1210 -1.4390732994046 2.5967450763797 309.52374592773 994.12756479222
337	9651291 40941 4666880 10725124 144 265 1211 0.25252325896802 31.28994257092 32715.711535161 991785.21639619
336	9692232 40944 4661930 10725124 143.9 265 1212 11670.716993164 13717.70825117 15127939.4167 189340547526.14
335	9733176 40950 4661930 10725124 143.9 265 1212 13601.276444125 16112.592124271 17872058.519442 264308878915.33
vector 615  RSUScenario.node[87].veinsmobility  posx  ETV
vector 616  RSUScenario.node[87].veinsmobility  posy  ETV
vector 617  RSUScenario.node[87].veinsmobility  speed  ETV
332	9774301 41473 4415366 10752700 138.9 265.5 1267 -1.7612000007933 22.811779329973 7256.8498012048 67926.939509094
331	9815774 44483 4415366 10752700 138.9 265.5 1267 -2.4813677076209 2.5960418191506 309.63895175515 1213.8146106781
330	9860257 42898 4410217 10752700 138.8 265.5 1268 0.12611365361019 31.289692001867 32693.914119825 985484.63309339
329	9903155 42893 4405068 10752700 138.7 265.5 1269 11670.716993164 13718.683944612 15796255.866633 197178770908.08
328	9946048 42883 4405068 10752700 138.7 265.5 1269 13601.276444125 16108.757376248 18646504.817593 274822011321.07
vector 618  RSUScenario.node[87].veinsmobility  acceleration  ETV
vector 619  RSUScenario.node[87].veinsmobility  co2emission  ETV
346	9989062 38874 4952708 10823851 150 266.8 1169 -1.7862123476222 20.423332801671 7182.4329540577 69809.420229095
345	10027936 41045 4952708 10823851 150 266.8 1169 -1.9066711821993 2.5488784631016 309.98328784384 1005.5907604953
344	10068981 39574 4948196 10823851 149.9 266.8 1170 0.25206832401804 31.289996852856 32704.236253583 986097.09290409
343	10108555 39593 4943686 10823851 149.8 266.8 1171 11670.716993164 13719.375292193 14652978.209463 183842910095.93
342	10148148 39601 4943686 10823851 149.8 266.8 1171 13601.276444125 16109.519774416 17313698.997449 256698707904.98
353	10187749 37792 5159473 10887116 154.7 268 1134 -1.6810427161407 21.997675456349 7171.1699520218 70022.690896289
352	10225541 39845 5159473 10887116 154.7 268 1134 -2.1816789813349 2.5977409762796 309.55301234098 1026.6110486525
351	10265386 38404 5155068 10887116 154.6 268 1135 0.25930057921656 31.289822046836 32691.237343055 986631.25542141
350	10303790 38418 5150663 10887116 154.5 268 1136 11670.716993164 13716.063544005 14242186.567661 179015703229.1
349	10342208 38438 5150663 10887116 154.5 268 1136 13601.276444125 16110.778357633 16837657.990648 250225668437.7
vector 622  RSUScenario.node[88].veinsmobility  posx  ETV
vector 623  RSUScenario.node[88].veinsmobility  posy  ETV
vector 624  RSUScenario.node[88].veinsmobility  speed  ETV
vector 625  RSUScenario.node[88].veinsmobility  acceleration  ETV
vector 626  RSUScenario.node[88].veinsmobility  co2emission  ETV
vector 629  RSUScenario.node[89].veinsmobility  posx  ETV
vector 630  RSUScenario.node[89].veinsmobility  posy  ETV
vector 631  RSUScenario.node[89].veinsmobility  speed  ETV
vector 632  RSUScenario.node[89].veinsmobility  acceleration  ETV
vector 633  RSUScenario.node[89].veinsmobility  co2emission  ETV
vector 636  RSUScenario.node[90].veinsmobility  posx  ETV
vector 637  RSUScenario.node[90].veinsmobility  posy  ETV
vector 638  RSUScenario.node[90].veinsmobility  speed  ETV
vector 639  RSUScenario.node[90].veinsmobility  acceleration  ETV
vector 640  RSUScenario.node[90].veinsmobility  co2emission  ETV
367	10381564 40170 5393964 11539977 160 280.2 1203 -1.6962665144935 24.067719635103 7301.0940623717 67058.726999796
366	10421734 42351 5393964 11539977 160 280.2 1203 -4.5 2.5959805180086 309.31055146028 1674.2299267105
365	10464085 40859 5389299 11539977 159.9 280.2 1204 0.25632790931431 31.289899287522 32700.038505826 971664.80638259
364	10504944 40866 5384636 11539977 159.8 280.2 1205 11670.716993164 13719.097622025 15051519.99117 188512592842.63
363	10545810 40871 5384636 11539977 159.8 280.2 1205 13601.276444125 16109.213567765 17784572.924278 263218281796.41
vector 643  RSUScenario.node[91].veinsmobility  posx  ETV
vector 644  RSUScenario.node[91].veinsmobility  posy  ETV
vector 645  RSUScenario.node[91].veinsmobility  speed  ETV
vector 646  RSUScenario.node[91].veinsmobility  acceleration  ETV
vector 647  RSUScenario.node[91].veinsmobility  co2emission  ETV
vector 650  RSUScenario.node[92].veinsmobility  posx  ETV
vector 651  RSUScenario.node[92].veinsmobility  posy  ETV
vector 652  RSUScenario.node[92].veinsmobility  speed  ETV
vector 653  RSUScenario.node[92].veinsmobility  acceleration  ETV
vector 654  RSUScenario.node[92].veinsmobility  co2emission  ETV
381	10587293 40210 5626774 11840742 165.2 285.6 1205 -1.7999742933648 24.428091574281 7219.028013148 66731.194056166
380	10627503 42468 5626774 11840742 165.2 285.6 1205 -3.8021768176043 2.5956456599757 309.15300460236 1423.1238463587
379	10669971 40946 5622200 11840742 165.1 285.6 1206 0.25799261691351 31.28985107698 32716.163835578 972321.77342021
378	10710917 40978 5617626 11840742 165 285.6 1207 11670.716993164 13720.181473056 15075470.046098 188801178041.22
377	10751895 40986 5617626 11840742 165 285.6 1207 13601.276444125 16110.408807414 17812239.244078 263603761954.09
vector 657  RSUScenario.node[93].veinsmobility  posx  ETV
vector 658  RSUScenario.node[93].veinsmobility  posy  ETV
vector 659  RSUScenario.node[93].veinsmobility  speed  ETV
vector 660  RSUScenario.node[93].veinsmobility  acceleration  ETV
vector 661  RSUScenario.node[93].veinsmobility  co2emission  ETV
vector 664  RSUScenario.node[94].veinsmobility  posx  ETV
vector 665  RSUScenario.node[94].veinsmobility  posy  ETV
vector 666  RSUScenario.node[94].veinsmobility  speed  ETV
vector 667  RSUScenario.node[94].veinsmobility  acceleration  ETV
vector 668  RSUScenario.node[94].veinsmobility  co2emission  ETV
374	10793493 42343 5511172 12104977 162.6 290.2 1277 -1.7928017849546 23.573672963224 7333.4771530374 66275.459911912
373	10835836 45033 5511172 12104977 162.6 290.2 1277 -3.8191878766433 2.5918959368486 309.74946126697 1711.3800662515
372	10880869 43482 5506696 12104977 162.5 290.2 1278 0.037136895722221 31.28988842183 32714.056553805 967133.48562423
371	10924351 43463 5502220 12104977 162.4 290.2 1279 11670.716993164 13720.036549812 15920447.15219 198717541515.43
370	10967814 43470 5502220 12104977 162.4 290.2 1279 13601.276444125 16110.24899024 18801706.881657 277201321755.56
395	11011284 40136 5856550 12174503 170.5 291.4 1210 -1.7821893296151 22.840549644648 7329.7990613199 68217.865898496
394	11051420 42668 5856550 12174503 170.5 291.4 1210 -3.595121850392 2.5963698599255 309.16692279806 1396.3236839781
393	11094088 41203 5852315 12174503 170.4 291.4 1211 0.25751984253456 31.289949261174 32693.63094414 966839.58226836
392	11135291 41203 5848068 12174503 170.3 291.4 1212 11670.716993164 13718.668203426 15132806.518555 189454446951.88
391	11176494 41218 5848068 12174503 170.3 291.4 1212 13601.276444125 16108.740017322 17881129.985104 264551426481.14
vector 671  RSUScenario.node[95].veinsmobility  posx  ETV
vector 672  RSUScenario.node[95].veinsmobility  posy  ETV
vector 673  RSUScenario.node[95].veinsmobility  speed  ETV
vector 674  RSUScenario.node[95].veinsmobility  acceleration  ETV
vector 675  RSUScenario.node[95].veinsmobility  co2emission  ETV
vector 678  RSUScenario.node[96].veinsmobility  posx  ETV
vector 679  RSUScenario.node[96].veinsmobility  posy  ETV
vector 680  RSUScenario.node[96].veinsmobility  speed  ETV
vector 681  RSUScenario.node[96].veinsmobility  acceleration  ETV
vector 682  RSUScenario.node[96].veinsmobility  co2emission  ETV
409	11218324 40147 6081043 12428714 175.8 295.8 1201 -1.747525838954 23.300070692131 7168.8122185218 64632.511228754
408	11258471 42468 6081043 12428714 175.8 295.8 1201 -3.3945632997065 2.5927304036682 309.61212616028 1313.7339840939
407	11300939 40936 6076590 12428714 175.7 295.8 1202 0.25211587796849 31.289907014 32706.41476743 973306.40842997
406	11341875 40966 6072136 12428714 175.6 295.8 1203 11670.716993164 13719.524080773 15027691.613064 188229478373.91
405	11382841 40957 6072136 12428714 175.6 295.8 1203 13601.276444125 16109.683854168 17756092.545846 262814386347.42
vector 685  RSUScenario.node[97].veinsmobility  posx  ETV
vector 686  RSUScenario.node[97].veinsmobility  posy  ETV
vector 687  RSUScenario.node[97].veinsmobility  speed  ETV
vector 688  RSUScenario.node[97].veinsmobility  acceleration  ETV
vector 689  RSUScenario.node[97].veinsmobility  co2emission  ETV
vector 692  RSUScenario.node[98].veinsmobility  posx  ETV
vector 693  RSUScenario.node[98].veinsmobility  posy  ETV
vector 694  RSUScenario.node[98].veinsmobility  speed  ETV
vector 695  RSUScenario.node[98].veinsmobility  acceleration  ETV
vector 696  RSUScenario.node[98].veinsmobility  co2emission  ETV
402	11424410 42127 5965462 12688706 173.1 300.3 1273 -1.7557825451697 24.367703272786 7310.4405044515 66593.724180787
401	11466537 45002 5965462 12688706 173.1 300.3 1273 -3.5803700196992 2.5975480293855 309.67023901436 1619.5173088895
400	11511539 43416 5961176 12688706 173 300.3 1274 0.078427278272065 31.289973987755 32710.866510902 967976.63962204
399	11554955 43432 5956888 12688706 172.9 300.3 1275 11670.716993164 13719.822402022 15872578.669273 198144501814
398	11598387 43440 5956888 12688706 172.9 300.3 1275 13601.276444125 16110.012834235 18745014.058909 276398103615.59
423	11641827 40151 6312721 12758223 181 301.5 1206 -1.7594842103915 23.49422866183 7280.2487554814 68543.144867004
422	11681978 42637 6312721 12758223 181 301.5 1206 -3.30215665765 2.5929780687205 309.62962043226 1364.7891336115
421	11724615 41152 6308062 12758223 180.9 301.5 1207 0.25695073076617 31.2898706676 32690.679180649 969364.30008872
420	11765767 41201 6303383 12758223 180.8 301.5 1208 11670.716993164 13718.46690718 15085329.840135 188890837976.87
419	11806968 41193 6303383 12758223 180.8 301.5 1208 13601.276444125 16108.518033629 17824963.334451 263762277474.62
vector 699  RSUScenario.node[99].veinsmobility  posx  ETV
vector 700  RSUScenario.node[99].veinsmobility  posy  ETV
vector 701  RSUScenario.node[99].veinsmobility  speed  ETV
vector 702  RSUScenario.node[99].veinsmobility  acceleration  ETV
vector 703  RSUScenario.node[99].veinsmobility  co2emission  ETV
vector 706  RSUScenario.node[100].veinsmobility  posx  ETV
vector 707  RSUScenario.node[100].veinsmobility  posy  ETV
360	11848585 47177 5277208 12971910 157.4 305.2 1479 -1.7635857488133 23.741027563286 7676.8413575994 67902.651945757
359	11895762 47773 5277208 12971910 157.4 305.2 1479 -4.5 2.5977050845046 309.38106487618 2168.9624953661
358	11943535 46852 5272722 12971910 157.3 305.2 1480 0 31.289330251941 32710.17344024 969642.74212214
357	11990387 50455 5268236 12971910 157.2 305.2 1481 11670.716993164 13719.778326689 18291794.195839 226555936608.12
356	12040842 50453 5268236 12971910 157.2 305.2 1481 13601.276444125 16109.96422923 21575288.42743 315282592435.06
vector 708  RSUScenario.node[100].veinsmobility  speed  ETV
vector 709  RSUScenario.node[100].veinsmobility  acceleration  ETV
vector 710  RSUScenario.node[100].veinsmobility  co2emission  ETV
388	12091488 45872 5745777 13012422 167.9 305.9 1381 -1.7282708967406 23.536702607289 7439.8876720545 65868.263162986
387	12137360 49104 5745777 13012422 167.9 305.9 1381 -3.8857288440521 2.5983187657548 309.88743300867 1675.6081325118
386	12186464 47468 5741389 13012422 167.8 305.9 1382 5.2045723552273e-06 31.289981063502 32689.499267065 965716.98432043
385	12233932 47110 5737001 13012422 167.7 305.9 1383 11670.716993164 13715.944782258 17136802.408316 212936566438.98
384	12281042 47133 5737001 13012422 167.7 305.9 1383 13601.276444125 16110.647388363 20227614.589712 296751149749.77
416	12328175 42611 6195907 13046129 178.4 306.5 1282 -1.7952475164779 23.093643821301 7280.8958853273 64386.492717692
415	12370786 45370 6195907 13046129 178.4 306.5 1282 -3.6312154909964 2.5945631090216 309.54912228768 1641.0299348292
414	12416156 43815 6191417 13046129 178.3 306.5 1283 0.13479543655885 31.289573425103 32711.430871998 967071.5660857
413	12459971 43792 6186927 13046129 178.2 306.5 1284 11670.716993164 13719.861353727 15979715.514428 199420638356.95
412	12503763 43807 6186927 13046129 178.2 306.5 1284 13601.276444125 16110.055789052 18867683.184159 278069207073.17
437	12547570 40514 6561821 13084469 186.4 307.2 1209 -1.7838876885509 24.164791972527 7259.8719083361 67850.14687797
436	12588084 42802 6561821 13084469 186.4 307.2 1209 -4.0771091953468 2.5997297707712 309.462526383 1522.1037907234
435	12630886 41318 6557101 13084469 186.3 307.2 1210 0.2525553246066 31.289056712878 32699.880587865 973242.21054692
434	12672204 41343 6552381 13084469 186.2 307.2 1211 11670.716993164 13716.645215439 15119356.697736 189274792034.02
433	12713547 41334 6552381 13084469 186.2 307.2 1211 13601.276444125 16111.419819081 17865708.041742 264319790824.2
vector 713  RSUScenario.node[101].veinsmobility  posx  ETV
vector 714  RSUScenario.node[101].veinsmobility  posy  ETV
vector 715  RSUScenario.node[101].veinsmobility  speed  ETV
vector 716  RSUScenario.node[101].veinsmobility  acceleration  ETV
vector 717  RSUScenario.node[101].veinsmobility  co2emission  ETV
vector 720  RSUScenario.node[102].veinsmobility  posx  ETV
vector 721  RSUScenario.node[102].veinsmobility  posy  ETV
vector 722  RSUScenario.node[102].veinsmobility  speed  ETV
vector 723  RSUScenario.node[102].veinsmobility  acceleration  ETV
vector 724  RSUScenario.node[102].veinsmobility  co2emission  ETV
451	12755503 40508 6815105 13342410 191.7 311.9 1203 -1.7700710290577 22.934317264674 7118.6310804328 65311.672837777
450	12796011 42687 6815105 13342410 191.7 311.9 1203 -3.1388348839263 2.591777095967 309.97471539772 1296.3441690882
449	12838698 41173 6810160 13342410 191.6 311.9 1204 0.25508115442237 31.289705279917 32693.290079045 978283.14179746
448	12879871 41187 6805215 13342410 191.5 311.9 1205 11670.716993164 13718.640051454 15048882.658089 188449706910.2
447	12921058 41193 6805215 13342410 191.5 311.9 1205 13601.276444125 16108.708972139 17779823.907569 263086914211.87
vector 727  RSUScenario.node[103].veinsmobility  posx  ETV
vector 728  RSUScenario.node[103].veinsmobility  posy  ETV
vector 729  RSUScenario.node[103].veinsmobility  speed  ETV
vector 730  RSUScenario.node[103].veinsmobility  acceleration  ETV
vector 731  RSUScenario.node[103].veinsmobility  co2emission  ETV
vector 734  RSUScenario.node[104].veinsmobility  posx  ETV
vector 735  RSUScenario.node[104].veinsmobility  posy  ETV
vector 736  RSUScenario.node[104].veinsmobility  speed  ETV
444	12962740 42495 6684469 13572397 189 316 1271 -1.7308082777038 23.449097201434 7226.4371532956 65084.513227259
443	13005235 45143 6684469 13572397 189 316 1271 -3.9863242527811 2.5987963833381 309.93952411695 1509.2357264839
442	13050378 43571 6679558 13572397 188.9 316 1272 0.015443293507164 31.289973833873 32718.50882695 975896.79878125
441	13093949 43521 6674649 13572397 188.8 316 1273 11670.716993164 13720.334185667 15847110.196071 197823303221.52
440	13137470 43533 6674649 13572397 188.8 316 1273 13601.276444125 16110.577214475 18712726.370504 275889989917.28
vector 737  RSUScenario.node[104].veinsmobility  acceleration  ETV
vector 738  RSUScenario.node[104].veinsmobility  co2emission  ETV
465	13181136 40430 7072895 13641600 196.9 317.2 1204 -1.7271476785885 21.860141631315 7183.8349474375 66316.915866454
464	13221566 42803 7072895 13641600 196.9 317.2 1204 -3.4367186754619 2.5877262611873 309.48507559795 1241.0095361112
463	13264369 41245 7067761 13641600 196.8 317.2 1205 0.25914900829596 31.2896024725 32698.586734602 976997.57689409
462	13305614 41292 7062627 13641600 196.7 317.2 1206 11670.716993164 13718.998766104 15060933.450754 188595139084.54
461	13346906 41268 7062627 13641600 196.7 317.2 1206 13601.276444125 16109.104552307 17794618.264061 263306899086.51
vector 741  RSUScenario.node[105].veinsmobility  posx  ETV
vector 742  RSUScenario.node[105].veinsmobility  posy  ETV
vector 743  RSUScenario.node[105].veinsmobility  speed  ETV
vector 744  RSUScenario.node[105].veinsmobility  acceleration  ETV
vector 745  RSUScenario.node[105].veinsmobility  co2emission  ETV
vector 748  RSUScenario.node[106].veinsmobility  posx  ETV
vector 749  RSUScenario.node[106].veinsmobility  posy  ETV
vector 750  RSUScenario.node[106].veinsmobility  speed  ETV
vector 751  RSUScenario.node[106].veinsmobility  acceleration  ETV
vector 752  RSUScenario.node[106].veinsmobility  co2emission  ETV
479	13388796 40496 7318837 13950842 202.1 322.6 1206 -1.7731286064393 22.373257678338 7120.9674590986 65461.306891208
478	13429292 42881 7318837 13950842 202.1 322.6 1206 -2.9803283831031 2.587213286059 309.61313997217 1202.2995521237
477	13472173 41366 7314225 13950842 202 322.6 1207 0.25354635153362 31.289780877263 32693.170643323 978828.56465623
476	13513539 41391 7309611 13950842 201.9 322.6 1208 11670.716993164 13718.634561936 15083788.310455 188856095879.91
475	13554930 41385 7309611 13950842 201.9 322.6 1208 13601.276444125 16108.702918457 17820029.782906 263625365409.26
vector 755  RSUScenario.node[107].veinsmobility  posx  ETV
vector 756  RSUScenario.node[107].veinsmobility  posy  ETV
vector 757  RSUScenario.node[107].veinsmobility  speed  ETV
vector 758  RSUScenario.node[107].veinsmobility  acceleration  ETV
vector 759  RSUScenario.node[107].veinsmobility  co2emission  ETV
vector 762  RSUScenario.node[108].veinsmobility  posx  ETV
vector 763  RSUScenario.node[108].veinsmobility  posy  ETV
vector 764  RSUScenario.node[108].veinsmobility  speed  ETV
472	13596804 42527 7201028 14177943 199.5 326.6 1272 -1.7811367880648 24.265059456675 7184.7912908205 64350.619460917
471	13639331 45297 7201028 14177943 199.5 326.6 1272 -2.9834261692654 2.597830883693 309.82184757056 1380.0720400927
470	13684628 43677 7196296 14177943 199.4 326.6 1273 0.0308175284475 31.28997135665 32704.958652231 976337.61999614
469	13728305 43642 7191411 14177943 199.3 326.6 1274 11670.716993164 13719.424720111 15857220.888865 197921054780.19
468	13771947 43640 7191411 14177943 199.3 326.6 1274 13601.276444125 16109.574282097 18723912.73005 276006115163.24
vector 765  RSUScenario.node[108].veinsmobility  acceleration  ETV
vector 766  RSUScenario.node[108].veinsmobility  co2emission  ETV
493	13815720 40506 7558504 14250870 207.4 327.9 1206 -1.7292956693423 22.784304463896 7184.6500520579 67816.005307814
492	13856226 42910 7558504 14250870 207.4 327.9 1206 -2.9662686344411 2.5890385953011 309.54881296223 1231.6526817026
491	13899136 41409 7553739 14250870 207.3 327.9 1207 0.25443930067122 31.289875641265 32715.320607582 977553.99180204
490	13940545 41467 7548962 14250870 207.2 327.9 1208 11670.716993164 13720.1224262 15085312.747588 188894105128.36
489	13982012 41453 7548962 14250870 207.2 327.9 1208 13601.276444125 16110.343692244 17822946.826765 263710815478.58
vector 769  RSUScenario.node[109].veinsmobility  posx  ETV
vector 770  RSUScenario.node[109].veinsmobility  posy  ETV
vector 771  RSUScenario.node[109].veinsmobility  speed  ETV
vector 772  RSUScenario.node[109].veinsmobility  acceleration  ETV
vector 773  RSUScenario.node[109].veinsmobility  co2emission  ETV
vector 776  RSUScenario.node[110].veinsmobility  posx  ETV
vector 777  RSUScenario.node[110].veinsmobility  posy  ETV
vector 778  RSUScenario.node[110].veinsmobility  speed  ETV
vector 779  RSUScenario.node[110].veinsmobility  acceleration  ETV
vector 780  RSUScenario.node[110].veinsmobility  co2emission  ETV
458	14024087 46302 6943328 14502083 194.3 332.4 1382 -1.7612787942886 24.133054275908 7318.7487201673 65060.460671833
457	14070389 49461 6943328 14502083 194.3 332.4 1382 -3.3410811996262 2.5985526758246 309.97488960743 1515.2360716439
456	14119850 47792 6938194 14502083 194.2 332.4 1383 1.7766483418222e-06 31.289926811592 32717.35645166 974065.14012134
455	14167642 47432 6933060 14502083 194.1 332.4 1384 11670.716993164 13717.815878476 17144900.961795 212992539073.45
454	14215074 47418 6933060 14502083 194.1 332.4 1384 13601.276444125 16112.71081459 20232002.840945 296688582360.31
430	14262492 47777 6438132 14536138 183.7 333 1494 -1.7577331396558 24.125873821894 7465.7507238883 64936.69166898
429	14310269 48623 6438132 14536138 183.7 333 1494 -4.5 2.5980091898423 309.62958515196 1697.4824897546
428	14358892 47303 6433451 14536138 183.6 333 1495 0 31.289902148754 32697.969347248 975274.67838278
427	14406195 51226 6428770 14536138 183.5 333 1496 11670.716993164 13718.956773917 18459278.955933 228419879735.15
426	14457421 51235 6428770 14536138 183.5 333 1496 13601.276444125 16109.058244535 21763658.945631 317625986879.87
507	14508656 40703 7813033 14569117 212.7 333.6 1210 -1.7414921646246 20.454185071453 7196.3061391021 66738.177435024
506	14549359 43117 7813033 14569117 212.7 333.6 1210 -3.4922051176876 2.5824984019855 309.29485604862 1270.6238277302
505	14592476 41615 7807923 14569117 212.6 333.6 1211 0.2521225976909 31.289563259026 32696.203514169 977580.45881003
504	14634091 41650 7802813 14569117 212.5 333.6 1212 11670.716993164 13716.399363191 15129551.088135 189375949659.84
503	14675741 41645 7802813 14569117 212.5 333.6 1212 13601.276444125 16111.148695677 17876465.410091 264426228215.92
vector 783  RSUScenario.node[111].veinsmobility  posx  ETV
vector 784  RSUScenario.node[111].veinsmobility  posy  ETV
486	14717504 43104 7433902 14606459 204.7 334.3 1297 -1.8017531688617 21.818925676072 7330.2622706704 68359.288287565
485	14760608 46123 7433902 14606459 204.7 334.3 1297 -3.3398074482196 2.5782562971581 309.57190180196 1515.3679444189
484	14806731 44595 7429326 14606459 204.6 334.3 1298 0.07338584975495 31.289948237117 32708.58359941 971251.41233408
483	14851326 44572 7424726 14606459 204.5 334.3 1299 11670.716993164 13719.670235635 16152509.179999 201410455176.88
482	14895898 44558 7424726 14606459 204.5 334.3 1299 13601.276444125 16109.845029534 19066789.630792 280709480564.7
vector 785  RSUScenario.node[111].veinsmobility  speed  ETV
vector 786  RSUScenario.node[111].veinsmobility  acceleration  ETV
vector 787  RSUScenario.node[111].veinsmobility  co2emission  ETV
vector 790  RSUScenario.node[112].veinsmobility  posx  ETV
vector 791  RSUScenario.node[112].veinsmobility  posy  ETV
vector 792  RSUScenario.node[112].veinsmobility  speed  ETV
vector 793  RSUScenario.node[112].veinsmobility  acceleration  ETV
vector 794  RSUScenario.node[112].veinsmobility  co2emission  ETV
521	14940960 40916 8073747 14852701 217.9 338.8 1210 -1.7915744696241 24.764396112394 7072.4405247063 64732.34570165
520	14981876 43247 8073747 14852701 217.9 338.8 1210 -2.5409263265116 2.5960154996254 309.44043307387 1148.3104574079
519	15025123 41658 8068442 14852701 217.8 338.8 1211 0.254429915532 31.289929147826 32696.458499523 983049.07902059
518	15066781 41691 8063125 14852701 217.7 338.8 1212 11670.716993164 13718.856460095 15129715.01304 189383345637.95
517	15108472 41715 8063125 14852701 217.7 338.8 1212 13601.276444125 16108.947621346 17873106.983491 264329679857.84
vector 797  RSUScenario.node[113].veinsmobility  posx  ETV
vector 798  RSUScenario.node[113].veinsmobility  posy  ETV
vector 799  RSUScenario.node[113].veinsmobility  speed  ETV
vector 800  RSUScenario.node[113].veinsmobility  acceleration  ETV
[...]
800	24242070 39759 14913315 20873654 339.9 450.2 1104 -2.2735607867008 2.5982675980311 310.18919188127 1073.8342578878
801	24281829 37592 14913315 20873654 339.9 450.2 1104 -1.798513186554 23.005158106479 6477.5051406241 59779.910683028
804	24319421 37425 15054792 20873654 342.4 450.2 1079 13601.276444125 15453.694712022 15425921.239192 220952216584.29
805	24356846 37451 15054792 20873654 342.4 450.2 1079 11670.716993164 13069.350980423 13069296.995392 158512225058.53
806	24394297 37703 15060677 20873654 342.5 450.2 1078 1.6117182232783e-05 31.28984342024 23464.715204834 694129.27024859
807	24432000 38959 15066563 20873654 342.6 450.2 1077 -2.9824195464981 2.5898864563281 309.57135770472 1232.319254557
808	24470959 36009 15066563 20873654 342.6 450.2 1077 -1.7318093207354 24.615710748363 5634.9050261855 52351.349361494
811	24506968 36531 15206047 20873654 345 450.2 1053 13601.276444125 15732.712639547 15321872.570802 223442059752.64
812	24543499 36532 15206047 20873654 345 450.2 1053 11670.716993164 13355.505633979 12960429.702414 159817618128.03
813	24580031 36513 15211992 20873654 345.1 450.2 1052 0.24892858858453 31.289557723678 27462.526323266 819631.76508139
814	24616544 37816 15217927 20873654 345.2 450.2 1051 -2.2373517946347 2.5980911499122 309.4527285181 1056.0145786317
815	24654360 35520 15217927 20873654 345.2 450.2 1051 -1.7919140302365 23.29424909132 6237.1790666086 60021.213308395
818	24689880 35595 15361353 20873654 347.7 450.2 1026 13601.276444125 15531.89660279 14768154.96196 212992414678.18
819	24725475 35589 15361353 20873654 347.7 450.2 1026 11670.716993164 13149.732629484 12500167.059213 152521190776.84
820	24761064 35607 15367231 20873654 347.8 450.2 1025 0.019151698990977 31.289757834065 24586.448439981 731351.03715351
821	24796671 36909 15373165 20873654 347.9 450.2 1024 -2.6097403912003 2.5990140056005 309.15431045153 1062.9832881503
822	24833580 34596 15373165 20873654 347.9 450.2 1024 -1.6757237015157 24.374604553385 5661.6241921002 51848.674817894
825	24868176 34520 15542441 20873654 350.8 450.2 995 13601.276444125 15616.782496687 14420316.596274 209416785995.86
826	24902696 34506 15542441 20873654 350.8 450.2 995 11670.716993164 13236.713857221 12196262.330385 149740322971.27
827	24937202 34485 15548435 20873654 350.9 450.2 994 0.24779994157748 31.289939995932 25802.291748333 772565.58281922
828	24971687 35716 15554431 20873654 351 450.2 993 -1.8224194565646 2.5817626743174 310.40833575824 949.43099495315
829	25007403 33747 15554431 20873654 351 450.2 993 -1.7575719963297 22.124263671287 5852.9882654867 54551.601253096
832	25041150 33295 15752104 20873654 354.3 450.2 960 13601.276444125 15366.872355174 13730570.994479 196716475949.29
833	25074445 33291 15752104 20873654 354.3 450.2 960 11670.716993164 12979.208945225 11626146.633277 140962847757.03
834	25107736 33291 15758099 20873654 354.4 450.2 959 0.25104111369606 31.289566448666 22212.861716433 653247.6201008
835	25141027 34364 15764153 20873654 354.5 450.2 958 -3.3485150222917 2.5990535304416 310.12921999929 1198.1873274145
836	25175391 32111 15764153 20873654 354.5 450.2 958 -1.6117881616406 21.775193169349 5364.2023297899 50785.875541025
839	25207502 31905 15982023 20873654 358.3 450.2 920 13601.276444125 15426.470695053 13234875.230188 190723299996.52
840	25239407 31912 15982023 20873654 358.3 450.2 920 11670.716993164 13041.086045158 11192980.296777 136347744984.12
841	25271319 31879 15987886 20873654 358.4 450.2 919 0.25950227009528 31.288958578627 23072.182408244 681862.36535261
842	25303198 32978 15993803 20873654 358.5 450.2 918 -2.569018167764 2.5963128840784 309.69150175425 976.20926310533
843	25336176 30948 15993803 20873654 358.5 450.2 918 -1.7103928643499 21.242603512745 5464.2375991162 53844.346342728
846	25367124 30750 16174362 20873654 361.7 450.2 886 13601.276444125 14716.866811225 12306169.372114 171036964173.52
847	25397874 30763 16174362 20873654 361.7 450.2 886 11670.716993164 12343.478091566 10477273.297338 123932749821.66
848	25428637 26650 16179841 20873654 361.8 450.2 885 0 31.289937292396 13110.082493781 375295.42828185
849	25455287 27141 16185201 20873654 361.9 450.2 884 -4.5 2.5939855834929 309.82315166286 1103.9895537199
850	25482428 27200 16185201 20873654 361.9 450.2 884 -1.5660650080082 22.756854029963 3895.9881937797 36506.269654214
853	25509628 29581 16348809 20873654 365 450.2 853 13601.276444125 15314.257221397 12229186.199278 175596609640.23
854	25539209 29583 16348809 20873654 365 450.2 853 11670.716993164 12924.582056333 10342150.186435 125524983046.75
855	25568792 29576 16354317 20873654 365.1 450.2 852 0.25331570181297 31.289540112857 21454.199981713 637454.78782783
856	25598368 30601 16359774 20873654 365.2 450.2 851 -2.4219196542413 2.59700283641 310.13182942644 964.64422885533
857	25628969 28929 16359774 20873654 365.2 450.2 851 -1.7356008738087 23.579169605402 5064.4221659072 49373.969825057
860	25657898 28216 16558631 20873654 368.9 450.2 814 13601.276444125 15056.859871343 11511945.916842 163000755394.84
861	25686114 28251 16558631 20873654 368.9 450.2 814 11670.716993164 12657.343042895 9754850.1906883 116978933990.84
862	25714365 28398 16564117 20873654 369 450.2 813 0.0002341553273602 31.289759176087 17742.724918852 521285.83390777
863	25742763 29302 16569600 20873654 369.1 450.2 812 -2.7921892912743 2.5991562121548 309.80365146083 1001.1951971881
864	25772065 27380 16569600 20873654 369.1 450.2 812 -1.7488691717798 23.490636716319 4484.3344476151 44053.794384907
867	25799445 27265 16711055 20873654 371.7 450.2 786 13601.276444125 15174.599281581 11210886.125089 160115936414.93
868	25826710 27264 16711055 20873654 371.7 450.2 786 11670.716993164 12779.584254113 9483842.9191461 114526806986.79
869	25853974 27256 16716646 20873654 371.8 450.2 785 0.24724835047685 31.289852369847 19440.420652584 576863.06368512
870	25881230 28184 16722237 20873654 371.9 450.2 784 -1.7289176689363 2.5947406251682 309.85423446035 902.59611532517
871	25909414 26448 16722237 20873654 371.9 450.2 784 -1.7725523131285 24.263298006826 4725.0356497499 46204.897434033
874	25935862 25874 16929205 20873654 375.7 450.2 746 13601.276444125 14832.86880862 10452363.929213 146575384661.43
875	25961736 25861 16929205 20873654 375.7 450.2 746 11670.716993164 12439.695049969 8873382.1558628 105588661182.71
876	25987597 26019 16934874 20873654 375.8 450.2 745 0.00094853979138371 31.289946713366 14617.634810702 424126.57328386
877	26013616 26781 16940536 20873654 375.9 450.2 744 -2.8009065870713 2.5991307955235 309.81023804918 1060.4308720152
878	26040397 24670 16940536 20873654 375.9 450.2 744 -1.7826351282755 24.443566829211 3977.1152079974 40141.175824839
881	26065067 24220 17193495 20873654 380.5 450.2 698 13601.276444125 14974.016367033 9878394.5611499 139948134986.3
882	26089287 24215 17193495 20873654 380.5 450.2 698 11670.716993164 12574.729279064 8364274.3516248 100287091930.36
883	26113502 24192 17199210 20873654 380.6 450.2 697 0.045128599668627 31.289882554321 16572.315923251 486811.64670211
884	26137694 24962 17204924 20873654 380.7 450.2 696 -1.6093063355243 2.5995523646707 311.91777804896 817.01851933782
885	26162656 23536 17204924 20873654 380.7 450.2 696 -1.7258400671691 22.407838682389 4174.0840395246 41121.054674123
888	26186192 22500 17466283 20873654 385.4 450.2 649 13601.276444125 14686.683042178 9061469.7706331 126601412610.63
889	26208692 22510 17466283 20873654 385.4 450.2 649 11670.716993164 12318.442398078 7699636.1991009 91373990553.229
890	26231202 22563 17471953 20873654 385.5 450.2 648 0.082990088402151 31.289121813166 12717.824488212 362947.04288454
891	26253765 23114 17477624 20873654 385.6 450.2 647 -2.9086097427264 2.5728379450292 311.3873202922 1030.0177199286
892	26276879 21330 17477624 20873654 385.6 450.2 647 -1.5888949217896 22.366070074945 3675.4247565246 38675.909565878
895	26298209 20565 17764101 20873654 391 450.2 593 13601.276444125 14738.06911867 8321022.607699 116845021573.49
896	26318774 20570 17764101 20873654 391 450.2 593 11670.716993164 12356.77479483 7057265.1523396 84016012823.139
897	26339344 20564 17769250 20873654 391.1 450.2 592 0.25982403977076 31.289709238424 13362.520666476 386664.02134972
898	26359908 21194 17774397 20873654 391.2 450.2 591 -1.4062567556745 2.5904720882187 309.57486657079 815.72259090741
899	26381102 19894 17774397 20873654 391.2 450.2 591 -1.70200561012 23.855640569881 3593.2270345158 36583.995312698
902	26400996 19151 17970034 20873654 395.1 450.2 552 13601.276444125 14658.748771142 7727874.1241332 108255104641.03
903	26420147 19168 17970034 20873654 395.1 450.2 552 11670.716993164 12290.985642742 6558958.4048089 77955697884.784
904	26439315 19138 17975200 20873654 395.2 450.2 551 0.14734824809445 31.289220652329 12332.079267172 350797.06707238
905	26458453 19629 17980365 20873654 395.3 450.2 550 -2.9867632955367 2.5999834016431 311.41872404234 831.68765968841
906	26478082 18495 17980365 20873654 395.3 450.2 550 -1.7879300858531 21.793675373606 3563.519480268 38710.079519758
909	26496577 17001 18287313 20873654 401.3 450.2 490 13601.276444125 14627.218667519 6871715.498727 96421711783.739
910	26513578 17008 18287313 20873654 401.3 450.2 490 11670.716993164 12269.120133018 5828148.9938719 69338027808.399
911	26530586 16964 18292542 20873654 401.4 450.2 489 0.25609491322865 31.289769927214 11945.006854254 338574.51252829
912	26547550 17403 18297772 20873654 401.5 450.2 488 -2.1467651763579 2.5816774819046 309.62363185301 782.63685142574
913	26564953 16570 18297772 20873654 401.5 450.2 488 -1.6069613274611 24.531419333333 3411.3278335034 37651.120298541
916	26581523 15957 18445787 20873654 404.4 450.2 459 13601.276444125 13758.604214894 6291018.1985061 86225018038.288
917	26597480 15949 18445787 20873654 404.4 450.2 459 11670.716993164 11743.388003902 5379045.625141 63037497789.95
918	26613429 12321 18451051 20873654 404.5 450.2 458 0 19.136420042763 1746.2442483835 20672.282236691
919	26625750 11833 18456312 20873654 404.6 450.2 457 -4.5 2.5899878298398 116.77289181183 1489.2445372489
920	26637583 12884 18456312 20873654 404.6 450.2 457 0.973 12.674828466517 1171.006720559 6442.7662314162
923	26650467 15013 18581745 20873654 407 450.2 433 13601.276444125 14354.942382151 6008771.7719236 83406563063.831
924	26665480 15017 18581745 20873654 407 450.2 433 11670.716993164 12069.592364665 5111823.7205997 60354162222.065
925	26680497 14993 18587154 20873654 407.1 450.2 432 0.25290856964048 31.289791747616 8570.6893882218 217874.46861204
926	26695490 15227 18592562 20873654 407.2 450.2 431 -4.5 2.5988954958506 310.0723809984 1415.2140263609
927	26710717 14467 18592562 20873654 407.2 450.2 431 -1.7007091247745 23.965404326434 2997.3981052275 32503.757883352
930	26725184 14066 18724017 20873654 409.7 450.2 406 13601.276444125 14100.422255934 5590235.5128645 76979158556.5
931	26739250 14086 18724017 20873654 409.7 450.2 406 11670.716993164 11917.399553485 4769989.228883 56043003951.995
932	26753336 14104 18729404 20873654 409.8 450.2 405 0.044388378341704 31.286762911365 5603.005225939 122013.1923589
933	26767440 14249 18734783 20873654 409.9 450.2 404 -4.0735294945238 2.5987583912676 309.26331465119 1461.7271973507
934	26781689 13090 18734783 20873654 409.9 450.2 404 -1.6469150147986 22.985286759074 2499.9696448552 27175.348438317
937	26794779 13193 18862563 20873654 412.3 450.2 380 13601.276444125 14224.420861039 5252486.0463734 72614512635.011
938	26807972 13170 18862563 20873654 412.3 450.2 380 11670.716993164 11987.832744518 4474946.8555993 52701005320.279
939	26821142 13163 18867967 20873654 412.4 450.2 379 0.25787271264801 31.288618846631 7030.4615412756 171409.3107923
940	26834305 13344 18873364 20873654 412.5 450.2 378 -4.2895617278993 2.5964842962101 309.54351361919 1182.9124285626
941	26847649 12609 18873364 20873654 412.5 450.2 378 -1.7427570262192 24.219088671042 2623.1130750424 28730.080200589
944	26860258 12243 19004522 20873654 415 450.2 353 13601.276444125 13747.321237941 4833595.1934552 66186598053.321
945	26872501 12241 19004522 20873654 415 450.2 353 11670.716993164 11734.545368157 4134518.1509551 48425741117.62
946	26884742 12582 19009912 20873654 415.1 450.2 352 3.7585221879199e-06 15.017660286453 1605.7282170688 14788.49325677
947	26897324 12734 19015283 20873654 415.2 450.2 351 -3.8899915378091 2.5854047365021 104.21509858538 1009.0974962208
948	26910058 11169 19015283 20873654 415.2 450.2 351 0.973 10.463947409464 905.75623228043 4117.8972432696
951	26921227 11338 19143156 20873654 417.6 450.2 327 13601.276444125 14067.731110583 4500622.7619702 61949413538.633
952	26932565 11341 19143156 20873654 417.6 450.2 327 11670.716993164 11899.551707576 3840890.827282 45115816161.076
953	26943906 11315 19148506 20873654 417.7 450.2 326 0.25509303105553 31.020781449825 5230.4358137029 113779.90896617
954	26955221 11407 19153849 20873654 417.8 450.2 325 -4.0456623292763 2.5852343622595 307.6568841877 1079.3172256888
955	26966628 10685 19153849 20873654 417.8 450.2 325 -0.30328654006762 22.398685919005 2282.1195685308 25544.130379166
958	26977313 10400 19286389 20873654 420.3 450.2 300 13601.276444125 13825.974436755 4109241.9697449 56287215345.68
959	26987713 10402 19286389 20873654 420.3 450.2 300 11670.716993164 11772.7797598 3514172.5182438 41164888196.695
960	26998115 10408 19291830 20873654 420.4 450.2 299 0.064760574099887 22.217697727421 2491.7758669806 30542.2930634
961	27008523 10484 19297279 20873654 420.5 450.2 298 -3.4708841588766 2.5903626080137 219.65372588387 1115.5998057079
962	27019007 9350 19297279 20873654 420.5 450.2 298 0.973 16.104286162527 1331.9466138071 10104.954282293
965	27028357 9514 19425971 20873654 422.9 450.2 274 13601.276444125 13929.322481341 3758729.708127 51564395211.109
966	27037871 9509 19425971 20873654 422.9 450.2 274 11670.716993164 11824.607936066 3212212.3461223 37658516603.224
967	27047380 9467 19431422 20873654 423 450.2 273 0.25715518289013 31.280214434005 3656.9128046972 66777.89047812
968	27056847 9510 19436862 20873654 423.1 450.2 272 -3.1617590557724 2.5943561857567 310.11977050344 1062.7183514406
969	27066357 8923 19436862 20873654 423.1 450.2 272 0.973 24.220057079218 1998.4596364338 23712.659994373
972	27075280 8573 19569169 20873654 425.6 450.2 247 13601.276444125 13737.990475267 3378330.312889 46207403517.923
973	27083853 8574 19569169 20873654 425.6 450.2 247 11670.716993164 11733.866345478 2891357.9172918 33846051450.295
974	27092427 8565 19574639 20873654 425.7 450.2 246 0.13847348011672 14.6085366206 1517.6264170217 13395.718654667
975	27100992 8623 19580108 20873654 425.8 450.2 245 -3.7848569752411 2.5968736686977 102.89376255084 992.45400755956
976	27109615 7487 19580108 20873654 425.8 450.2 245 0.973 10.706719120266 761.58311295297 3857.3430632441
979	27117102 7660 19709074 20873654 428.2 450.2 221 13601.276444125 13803.354084644 3023893.8844041 41375993033.675
980	27124762 7669 19709074 20873654 428.2 450.2 221 11670.716993164 11761.552422326 2587239.5373386 30288865173.918
981	27132431 7636 19714393 20873654 428.3 450.2 220 0.25833603943582 21.254073020503 2238.3092009863 27810.153065923
982	27140067 7671 19721352 20873654 428.4 450.2 219 -3.0886098809818 2.5849132032134 209.95736981067 823.87584824576
983	27147738 7066 19721352 20873654 428.4 450.2 219 0.973 15.140552884742 1121.2910198283 8465.5206976323
986	27154804 6768 19842428 20873654 430.8 450.2 195 13601.276444125 13683.117403802 2662754.9478916 36360523634.418
987	27161572 6773 19842428 20873654 430.8 450.2 195 11670.716993164 11708.520015672 2280642.6418452 26673533381.107
988	27168345 5679 19847614 20873654 430.9 450.2 194 0 13.904751326689 902.18077445905 8711.2949827278
989	27174024 5481 19852795 20873654 431 450.2 193 -4.5 2.5840311962878 -2.4786283689481 788.07403738309
990	27179505 5492 19852795 20873654 431 450.2 193 0.973 10.302855076226 464.86134581143 2146.2908310561
993	27184997 5833 19981709 20873654 433.5 450.2 168 13601.276444125 13709.738631577 2293511.8418919 31310883055.938
994	27190830 5819 19981709 20873654 433.5 450.2 168 11670.716993164 11717.18499629 1964412.9811049 22969786430.895
995	27196649 5795 19987026 20873654 433.6 450.2 167 0.24706333838915 13.447917500127 1193.5907935467 10626.967626421
996	27202444 5805 19992344 20873654 433.7 450.2 166 -3.9215906751453 2.5846477592691 122.2394899781 819.50836720829
997	27208249 5312 19992344 20873654 433.7 450.2 166 0.973 9.5507840064828 635.22759066583 3407.8353445832
1000	27213561 5064 20115991 20873654 436.1 450.2 142 13601.276444125 13675.973871531 1937044.9874882 26423651109.124
1001	27218625 5072 20115991 20873654 436.1 450.2 142 11670.716993164 11705.220358479 1659857.9383178 19402335302.103
1002	27223697 5047 20121340 20873654 436.2 450.2 141 0.2495485129212 12.33325192186 823.79856755921 6579.7629412845
1003	27228744 5089 20126689 20873654 436.3 450.2 140 -3.6521348011004 2.5956869197777 1.1557968939919 588.50873285535
1004	27233833 4292 20126689 20873654 436.3 450.2 140 0.973 8.1849994641393 382.55782688365 1712.2931759502
1007	27238125 4108 20258743 20873654 438.8 450.2 115 13601.276444125 13668.182374828 1567728.7405599 21372004803.248
1008	27242233 4106 20258743 20873654 438.8 450.2 115 11670.716993164 11700.830175228 1343779.7219647 15702134276.616
1009	27246339 4070 20264118 20873654 438.9 450.2 114 0.25641623334889 11.302759571177 726.13415142783 5694.2839787765
1010	27250409 4104 20269496 20873654 439 450.2 113 -3.0107712907894 2.5422269095447 24.58072882664 425.32192805119
1011	27254513 3517 20269496 20873654 439 450.2 113 0.973 8.4633277400469 301.73337226893 1270.7256760452
1014	27258030 3176 20395765 20873654 441.4 450.2 89 13601.276444125 13653.651398464 1212443.9551965 16517110310.383
1015	27261206 3175 20395765 20873654 441.4 450.2 89 11670.716993164 11694.909421815 1039585.4579428 12143128674.516
1016	27264381 3146 20401172 20873654 441.5 450.2 88 0.25298096108669 11.188712723212 583.03575611478 4611.2212737584
1017	27267527 3145 20406579 20873654 441.6 450.2 87 -2.9212145098789 2.5789398614589 54.230147754105 362.95490509026
1018	27270672 2789 20406579 20873654 441.6 450.2 87 0.973 8.3011738925346 268.57324565427 1231.3954911591
1021	27273461 2251 20536144 20873654 444 450.2 63 13601.276444125 13634.490525259 857619.80272047 11674796076.191
1022	27275712 2246 20536144 20873654 444 450.2 63 11670.716993164 11686.058854521 735596.69947745 8588930084.7616
1023	27277958 2221 20541774 20873654 444.1 450.2 62 0.25509552099369 10.216454758062 374.76378959182 2839.3080054176
1024	27280179 2192 20547391 20873654 444.2 450.2 61 -2.808753832435 2.5859676758973 83.704479027259 235.39751845448
1025	27282371 2090 20547391 20873654 444.2 450.2 61 0.973 7.2264635494297 209.74335035864 905.90070226084
1028	27284461 1285 20682973 20873654 446.7 450.2 36 13601.276444125 13613.24735379 489793.9857166 6663837948.194
1029	27285746 1281 20682973 20873654 446.7 450.2 36 11670.716993164 11676.246456275 420214.18976875 4904999140.4865
1030	27287027 1250 20688533 20873654 446.8 450.2 35 0.25463961763773 7.3478964744125 139.31023654534 706.62863304081
1031	27288277 1210 20694093 20873654 446.9 450.2 34 1.315427793772 2.5810934206881 70.932568567747 153.69839562955
1032	27289487 1211 20694093 20873654 446.9 450.2 34 1.4502724484909 5.6783364166512 111.65082725156 405.66707507816
1035	27290698 356 20825162 20873654 449.3 450.2 10 13601.276444125 13602.058958891 136015.40835606 1850019131.7189
1036	27291054 358 20825162 20873654 449.3 450.2 10 11670.716993164 11671.078443267 116708.39117797 1362084857.2826
1037	27291412 325 20830590 20873654 449.4 450.2 9 0.24796812541387 2.0683937969592 10.694511823272 15.811277812074
1038	27291737 286 20836003 20873654 449.5 450.2 8 1.6417036734443 2.4980139061989 18.204256715453 41.941521345731
1039	27292023 284 20836003 20873654 449.5 450.2 8 1.43369167169 2.3703170810941 14.972937203176 28.648878218865
