version 2
run SingleCH_Safety_B_100Bytes_Q_1-0-20170902-20:39:29-60988
attr configname SingleCH_Safety_B_100Bytes_Q_1
attr datetime 20170902-20:39:29
attr experiment SingleCH_Safety_B_100Bytes_Q_1
attr inifile omnetpp.ini
attr iterationvars $0=1
attr iterationvars2 "$0=1, $repetition=0"
attr measurement $0=1
attr network RSUScenario
attr processid 60988
attr repetition 0
attr replication #0
attr resultdir results
attr runnumber 0
attr seedset 0
param **.coreDebug false
param **.debug true
param *.**.nic.mac1609_4.bitrate 6Mbps
param *.**.nic.mac1609_4.queueSize ${1,2,5}
param *.**.nic.mac1609_4.txPower 100mW
param *.**.nic.mac1609_4.useServiceChannel false
param *.**.nic.phy80211p.analogueModels "xmldoc(\"config.xml\")"
param *.**.nic.phy80211p.decider "xmldoc(\"config.xml\")"
param *.**.nic.phy80211p.decider.collectCollisionStats true
param *.**.nic.phy80211p.maxTXPower 100mW
param *.**.nic.phy80211p.sensitivity -89dBm
param *.**.nic.phy80211p.thermalNoise -110dBm
param *.**.nic.phy80211p.usePropagationDelay true
param *.**.nic.phy80211p.useThermalNoise true
param *.annotations.draw false
param *.connectionManager.alpha 2.0
param *.connectionManager.carrierFrequency "5.890e9 Hz"
param *.connectionManager.pMax 100mW
param *.connectionManager.sat -89dBm
param *.connectionManager.sendDirect true
param *.manager.autoShutdown true
param *.manager.host "\"localhost\""
param *.manager.launchConfig "xmldoc(\"erlangen.launchd.xml\")"
param *.manager.margin 25
param *.manager.moduleDisplayString "\"\""
param *.manager.moduleName "\"node\""
param *.manager.moduleType "\"vanets.src.CarWithMetrics\""
param *.manager.numVehicles 5
param *.manager.port 9999
param *.manager.updateInterval 0.1s
param *.metricsApplicaiton[*].appl.sendBeacons false
param *.metricsApplication.appl.beaconInterval 1s
param *.metricsApplication.appl.beaconLengthBits 800bit
param *.metricsApplication.appl.beaconPriority 3
param *.metricsApplication.appl.dataOnSch false
param *.metricsApplication.appl.dataPriority 2
param *.metricsApplication.appl.debug false
param *.metricsApplication.appl.headerLength "256 bit"
param *.metricsApplication.appl.maxOffset 0.005s
param *.metricsApplication.appl.sendBeacons false
param *.metricsApplication.appl.sendData true
param *.metricsApplication.applType "\"TraCIDemoRSU11p\""
param *.metricsApplication.mobility.x 2000
param *.metricsApplication.mobility.y 2000
param *.metricsApplication.mobility.z 3
param *.metricsApplication[*].appl.beaconInterval 0.1s
param *.metricsApplication[*].appl.beaconPriority 3
param *.metricsApplication[*].appl.dataOnSch false
param *.metricsApplication[*].appl.sendData false
param *.node[*0].veinsmobility.accidentCount 1
param *.node[*0].veinsmobility.accidentDuration 30s
param *.node[*0].veinsmobility.accidentStart 10s
param *.node[*].appl.beaconInterval 1s
param *.node[*].appl.beaconLengthBits 800bit
param *.node[*].appl.beaconPriority 3
param *.node[*].appl.dataOnSch false
param *.node[*].appl.dataPriority 2
param *.node[*].appl.debug false
param *.node[*].appl.headerLength "256 bit"
param *.node[*].appl.maxOffset 0.005s
param *.node[*].appl.sendBeacons false
param *.node[*].appl.sendData true
param *.node[*].applType "\"TraCIDemo11p\""
param *.node[*].mobilityType "\"TraCIMobility\""
param *.node[*].mobilityType.debug true
param *.node[*].veinsmobility.x 0
param *.node[*].veinsmobility.y 0
param *.node[*].veinsmobility.z 1.895
param *.node[*].veinsmobilityType "\"org.car2x.veins.modules.mobility.traci.TraCIMobility\""
param *.node[*].veinsmobilityType.debug true
param *.obstacles.debug false
param *.playgroundSizeX 25000m
param *.playgroundSizeY 25000m
param *.playgroundSizeZ 50m
param *.rsu[*].appl.beaconInterval 1s
param *.rsu[*].appl.beaconLengthBits 800bit
param *.rsu[*].appl.beaconPriority 3
param *.rsu[*].appl.dataOnSch false
param *.rsu[*].appl.dataPriority 2
param *.rsu[*].appl.debug false
param *.rsu[*].appl.headerLength "256 bit"
param *.rsu[*].appl.maxOffset 0.005s
param *.rsu[*].appl.sendBeacons false
param *.rsu[*].appl.sendData true
param *.rsu[*].applType "\"TraCIDemoRSU11p\""
param *.rsu[0].mobility.x 2000
param *.rsu[0].mobility.y 2000
param *.rsu[0].mobility.z 3
param *.world.use2D false
param *.world.useTorus false

scalar RSUScenario.node[1].nic.phy80211p 	busyTime 	0.019813664122137
scalar RSUScenario.node[1].nic.mac1609_4 	throughputMetricMac 	87.452662259774
scalar RSUScenario.node[1].nic.mac1609_4 	throughputMbps 	0.092369040441542
scalar RSUScenario.node[1].nic.mac1609_4 	throughputControlMbps 	0
scalar RSUScenario.node[1].nic.mac1609_4 	receivedFramesLowerMsg 	9265
scalar RSUScenario.node[1].nic.mac1609_4 	receivedBitsLowerPackets 	0
scalar RSUScenario.node[1].nic.mac1609_4 	receivedBitsLoserWsm 	0
scalar RSUScenario.node[1].nic.mac1609_4 	packetsNotForMe 	0
scalar RSUScenario.node[1].nic.mac1609_4 	receivedTotalBits 	9785856
scalar RSUScenario.node[1].nic.mac1609_4 	collisionsPktNonDecoded 	0
scalar RSUScenario.node[1].nic.mac1609_4 	ReceivedUnicastPackets 	0
scalar RSUScenario.node[1].nic.mac1609_4 	ReceivedBroadcasts 	9265
scalar RSUScenario.node[1].nic.mac1609_4 	SentPackets 	1049
scalar RSUScenario.node[1].nic.mac1609_4 	SNIRLostPackets 	3
scalar RSUScenario.node[1].nic.mac1609_4 	RXTXLostPackets 	0
scalar RSUScenario.node[1].nic.mac1609_4 	TotalLostPackets 	3
scalar RSUScenario.node[1].nic.mac1609_4 	DroppedPacketsInMac 	0
scalar RSUScenario.node[1].nic.mac1609_4 	TooLittleTime 	0
scalar RSUScenario.node[1].nic.mac1609_4 	TimesIntoBackoff 	1049
scalar RSUScenario.node[1].nic.mac1609_4 	SlotsBackoff 	1594
scalar RSUScenario.node[1].nic.mac1609_4 	NumInternalContention 	0
scalar RSUScenario.node[1].nic.mac1609_4 	totalBusyTime 	2.312049
scalar RSUScenario.node[1].nic.mac1609_4 	throughputMetricMac:last 	87.452662259774
attr source  throughputSignalMac
attr title  "throughputMetricMac, last"
scalar RSUScenario.node[1].nic.mac1609_4 	throughputMetricMac:count 	9265
attr source  throughputSignalMac
attr title  "throughputMetricMac, count"
scalar RSUScenario.node[1].nic.mac1609_4 	throughputMetricMac:sum 	765780.8017069
attr source  throughputSignalMac
attr title  "throughputMetricMac, sum"
scalar RSUScenario.node[1].nic.mac1609_4 	throughputMetricMac:mean 	82.653081673708
attr source  throughputSignalMac
attr title  "throughputMetricMac, mean"
scalar RSUScenario.node[1].veinsmobility 	startTime 	1.2
scalar RSUScenario.node[1].veinsmobility 	totalTime 	104.7
scalar RSUScenario.node[1].veinsmobility 	stopTime 	106
scalar RSUScenario.node[1].veinsmobility 	minSpeed 	31.160215385095
scalar RSUScenario.node[1].veinsmobility 	maxSpeed 	31.289876849744
scalar RSUScenario.node[1].veinsmobility 	totalDistance 	3270.6354827429
scalar RSUScenario.node[1].veinsmobility 	totalCO2Emission 	582.98566875327
scalar RSUScenario.node[2].nic.phy80211p 	busyTime 	0.019807251908396
scalar RSUScenario.node[2].nic.mac1609_4 	throughputMetricMac 	87.429613360424
scalar RSUScenario.node[2].nic.mac1609_4 	throughputMbps 	0.092344699896088
scalar RSUScenario.node[2].nic.mac1609_4 	throughputControlMbps 	0
scalar RSUScenario.node[2].nic.mac1609_4 	receivedFramesLowerMsg 	9263
scalar RSUScenario.node[2].nic.mac1609_4 	receivedBitsLowerPackets 	0
scalar RSUScenario.node[2].nic.mac1609_4 	receivedBitsLoserWsm 	0
scalar RSUScenario.node[2].nic.mac1609_4 	packetsNotForMe 	0
scalar RSUScenario.node[2].nic.mac1609_4 	receivedTotalBits 	9783744
scalar RSUScenario.node[2].nic.mac1609_4 	collisionsPktNonDecoded 	0
scalar RSUScenario.node[2].nic.mac1609_4 	ReceivedUnicastPackets 	0
scalar RSUScenario.node[2].nic.mac1609_4 	ReceivedBroadcasts 	9263
scalar RSUScenario.node[2].nic.mac1609_4 	SentPackets 	1049
scalar RSUScenario.node[2].nic.mac1609_4 	SNIRLostPackets 	2
scalar RSUScenario.node[2].nic.mac1609_4 	RXTXLostPackets 	0
scalar RSUScenario.node[2].nic.mac1609_4 	TotalLostPackets 	2
scalar RSUScenario.node[2].nic.mac1609_4 	DroppedPacketsInMac 	0
scalar RSUScenario.node[2].nic.mac1609_4 	TooLittleTime 	0
scalar RSUScenario.node[2].nic.mac1609_4 	TimesIntoBackoff 	1050
scalar RSUScenario.node[2].nic.mac1609_4 	SlotsBackoff 	1540
scalar RSUScenario.node[2].nic.mac1609_4 	NumInternalContention 	0
scalar RSUScenario.node[2].nic.mac1609_4 	totalBusyTime 	2.311601
scalar RSUScenario.node[2].nic.mac1609_4 	throughputMetricMac:last 	87.429613360424
attr source  throughputSignalMac
attr title  "throughputMetricMac, last"
scalar RSUScenario.node[2].nic.mac1609_4 	throughputMetricMac:count 	9263
attr source  throughputSignalMac
attr title  "throughputMetricMac, count"
scalar RSUScenario.node[2].nic.mac1609_4 	throughputMetricMac:sum 	765381.89104302
attr source  throughputSignalMac
attr title  "throughputMetricMac, sum"
scalar RSUScenario.node[2].nic.mac1609_4 	throughputMetricMac:mean 	82.627862576166
attr source  throughputSignalMac
attr title  "throughputMetricMac, mean"
scalar RSUScenario.node[2].veinsmobility 	startTime 	1.2
scalar RSUScenario.node[2].veinsmobility 	totalTime 	104.7
scalar RSUScenario.node[2].veinsmobility 	stopTime 	106
scalar RSUScenario.node[2].veinsmobility 	minSpeed 	31.16024968538
scalar RSUScenario.node[2].veinsmobility 	maxSpeed 	31.289973095939
scalar RSUScenario.node[2].veinsmobility 	totalDistance 	3271.6090219997
scalar RSUScenario.node[2].veinsmobility 	totalCO2Emission 	585.50500428217
scalar RSUScenario.node[4].nic.phy80211p 	busyTime 	0.020294580152671
scalar RSUScenario.node[4].nic.mac1609_4 	throughputMetricMac 	88.240351407195
scalar RSUScenario.node[4].nic.mac1609_4 	throughputMbps 	0.093200558324752
scalar RSUScenario.node[4].nic.mac1609_4 	throughputControlMbps 	0
scalar RSUScenario.node[4].nic.mac1609_4 	receivedFramesLowerMsg 	9489
scalar RSUScenario.node[4].nic.mac1609_4 	receivedBitsLowerPackets 	0
scalar RSUScenario.node[4].nic.mac1609_4 	receivedBitsLoserWsm 	0
scalar RSUScenario.node[4].nic.mac1609_4 	packetsNotForMe 	0
scalar RSUScenario.node[4].nic.mac1609_4 	receivedTotalBits 	10022400
scalar RSUScenario.node[4].nic.mac1609_4 	collisionsPktNonDecoded 	0
scalar RSUScenario.node[4].nic.mac1609_4 	ReceivedUnicastPackets 	0
scalar RSUScenario.node[4].nic.mac1609_4 	ReceivedBroadcasts 	9489
scalar RSUScenario.node[4].nic.mac1609_4 	SentPackets 	1049
scalar RSUScenario.node[4].nic.mac1609_4 	SNIRLostPackets 	4
scalar RSUScenario.node[4].nic.mac1609_4 	RXTXLostPackets 	0
scalar RSUScenario.node[4].nic.mac1609_4 	TotalLostPackets 	4
scalar RSUScenario.node[4].nic.mac1609_4 	DroppedPacketsInMac 	0
scalar RSUScenario.node[4].nic.mac1609_4 	TooLittleTime 	0
scalar RSUScenario.node[4].nic.mac1609_4 	TimesIntoBackoff 	1050
scalar RSUScenario.node[4].nic.mac1609_4 	SlotsBackoff 	1601
scalar RSUScenario.node[4].nic.mac1609_4 	NumInternalContention 	0
scalar RSUScenario.node[4].nic.mac1609_4 	totalBusyTime 	2.362225
scalar RSUScenario.node[4].nic.mac1609_4 	throughputMetricMac:last 	88.240351407195
attr source  throughputSignalMac
attr title  "throughputMetricMac, last"
scalar RSUScenario.node[4].nic.mac1609_4 	throughputMetricMac:count 	9489
attr source  throughputSignalMac
attr title  "throughputMetricMac, count"
scalar RSUScenario.node[4].nic.mac1609_4 	throughputMetricMac:sum 	792762.9051096
attr source  throughputSignalMac
attr title  "throughputMetricMac, sum"
scalar RSUScenario.node[4].nic.mac1609_4 	throughputMetricMac:mean 	83.545463706355
attr source  throughputSignalMac
attr title  "throughputMetricMac, mean"
scalar RSUScenario.node[4].veinsmobility 	startTime 	2.8
scalar RSUScenario.node[4].veinsmobility 	totalTime 	104.7
scalar RSUScenario.node[4].veinsmobility 	stopTime 	107.6
scalar RSUScenario.node[4].veinsmobility 	minSpeed 	31.160111452104
scalar RSUScenario.node[4].veinsmobility 	maxSpeed 	31.289980451211
scalar RSUScenario.node[4].veinsmobility 	totalDistance 	3270.520309585
scalar RSUScenario.node[4].veinsmobility 	totalCO2Emission 	581.73967272401
scalar RSUScenario.node[3].nic.phy80211p 	busyTime 	0.02855671966526
scalar RSUScenario.node[3].nic.mac1609_4 	throughputMetricMac 	122.90456938452
scalar RSUScenario.node[3].nic.mac1609_4 	throughputMbps 	0.12981104544352
scalar RSUScenario.node[3].nic.mac1609_4 	throughputControlMbps 	0
scalar RSUScenario.node[3].nic.mac1609_4 	receivedFramesLowerMsg 	15025
scalar RSUScenario.node[3].nic.mac1609_4 	receivedBitsLowerPackets 	0
scalar RSUScenario.node[3].nic.mac1609_4 	receivedBitsLoserWsm 	0
scalar RSUScenario.node[3].nic.mac1609_4 	packetsNotForMe 	0
scalar RSUScenario.node[3].nic.mac1609_4 	receivedTotalBits 	15869312
scalar RSUScenario.node[3].nic.mac1609_4 	collisionsPktNonDecoded 	0
scalar RSUScenario.node[3].nic.mac1609_4 	ReceivedUnicastPackets 	0
scalar RSUScenario.node[3].nic.mac1609_4 	ReceivedBroadcasts 	15025
scalar RSUScenario.node[3].nic.mac1609_4 	SentPackets 	1196
scalar RSUScenario.node[3].nic.mac1609_4 	SNIRLostPackets 	207
scalar RSUScenario.node[3].nic.mac1609_4 	RXTXLostPackets 	0
scalar RSUScenario.node[3].nic.mac1609_4 	TotalLostPackets 	207
scalar RSUScenario.node[3].nic.mac1609_4 	DroppedPacketsInMac 	0
scalar RSUScenario.node[3].nic.mac1609_4 	TooLittleTime 	0
scalar RSUScenario.node[3].nic.mac1609_4 	TimesIntoBackoff 	1197
scalar RSUScenario.node[3].nic.mac1609_4 	SlotsBackoff 	1833
scalar RSUScenario.node[3].nic.mac1609_4 	NumInternalContention 	0
scalar RSUScenario.node[3].nic.mac1609_4 	totalBusyTime 	3.658332
scalar RSUScenario.node[3].nic.mac1609_4 	throughputMetricMac:last 	122.90456938452
attr source  throughputSignalMac
attr title  "throughputMetricMac, last"
scalar RSUScenario.node[3].nic.mac1609_4 	throughputMetricMac:count 	15025
attr source  throughputSignalMac
attr title  "throughputMetricMac, count"
scalar RSUScenario.node[3].nic.mac1609_4 	throughputMetricMac:sum 	1621454.9724805
attr source  throughputSignalMac
attr title  "throughputMetricMac, sum"
scalar RSUScenario.node[3].nic.mac1609_4 	throughputMetricMac:mean 	107.91713627158
attr source  throughputSignalMac
attr title  "throughputMetricMac, mean"
scalar RSUScenario.node[3].veinsmobility 	startTime 	2.8
scalar RSUScenario.node[3].veinsmobility 	totalTime 	119.4
scalar RSUScenario.node[3].veinsmobility 	stopTime 	122.3
scalar RSUScenario.node[3].veinsmobility 	minSpeed 	2.5170211885758
scalar RSUScenario.node[3].veinsmobility 	maxSpeed 	31.289952244477
scalar RSUScenario.node[3].veinsmobility 	totalDistance 	3276.1216638645
scalar RSUScenario.node[3].veinsmobility 	totalCO2Emission 	726.28171090449
scalar RSUScenario.node[6].nic.phy80211p 	busyTime 	0.032335095594332
scalar RSUScenario.node[6].nic.mac1609_4 	throughputMetricMac 	133.866731127
scalar RSUScenario.node[6].nic.mac1609_4 	throughputMbps 	0.14138961022042
scalar RSUScenario.node[6].nic.mac1609_4 	throughputControlMbps 	0
scalar RSUScenario.node[6].nic.mac1609_4 	receivedFramesLowerMsg 	17075
scalar RSUScenario.node[6].nic.mac1609_4 	receivedBitsLowerPackets 	0
scalar RSUScenario.node[6].nic.mac1609_4 	receivedBitsLoserWsm 	0
scalar RSUScenario.node[6].nic.mac1609_4 	packetsNotForMe 	0
scalar RSUScenario.node[6].nic.mac1609_4 	receivedTotalBits 	18034560
scalar RSUScenario.node[6].nic.mac1609_4 	collisionsPktNonDecoded 	0
scalar RSUScenario.node[6].nic.mac1609_4 	ReceivedUnicastPackets 	0
scalar RSUScenario.node[6].nic.mac1609_4 	ReceivedBroadcasts 	17075
scalar RSUScenario.node[6].nic.mac1609_4 	SentPackets 	1204
scalar RSUScenario.node[6].nic.mac1609_4 	SNIRLostPackets 	288
scalar RSUScenario.node[6].nic.mac1609_4 	RXTXLostPackets 	1
scalar RSUScenario.node[6].nic.mac1609_4 	TotalLostPackets 	289
scalar RSUScenario.node[6].nic.mac1609_4 	DroppedPacketsInMac 	0
scalar RSUScenario.node[6].nic.mac1609_4 	TooLittleTime 	0
scalar RSUScenario.node[6].nic.mac1609_4 	TimesIntoBackoff 	2381
scalar RSUScenario.node[6].nic.mac1609_4 	SlotsBackoff 	3588
scalar RSUScenario.node[6].nic.mac1609_4 	NumInternalContention 	0
scalar RSUScenario.node[6].nic.mac1609_4 	totalBusyTime 	4.128596
scalar RSUScenario.node[6].nic.mac1609_4 	throughputMetricMac:last 	133.866731127
attr source  throughputSignalMac
attr title  "throughputMetricMac, last"
scalar RSUScenario.node[6].nic.mac1609_4 	throughputMetricMac:count 	17075
attr source  throughputSignalMac
attr title  "throughputMetricMac, count"
scalar RSUScenario.node[6].nic.mac1609_4 	throughputMetricMac:sum 	1932663.1337356
attr source  throughputSignalMac
attr title  "throughputMetricMac, sum"
scalar RSUScenario.node[6].nic.mac1609_4 	throughputMetricMac:mean 	113.18671354235
attr source  throughputSignalMac
attr title  "throughputMetricMac, mean"
scalar RSUScenario.node[6].veinsmobility 	startTime 	7.3
scalar RSUScenario.node[6].veinsmobility 	totalTime 	120.2
scalar RSUScenario.node[6].veinsmobility 	stopTime 	127.6
scalar RSUScenario.node[6].veinsmobility 	minSpeed 	0.25956810897705
scalar RSUScenario.node[6].veinsmobility 	maxSpeed 	31.289831382905
scalar RSUScenario.node[6].veinsmobility 	totalDistance 	3275.1429151318
scalar RSUScenario.node[6].veinsmobility 	totalCO2Emission 	721.78145281147
scalar RSUScenario.node[5].nic.phy80211p 	busyTime 	0.03470221523958
scalar RSUScenario.node[5].nic.mac1609_4 	throughputMetricMac 	146.64902681488
scalar RSUScenario.node[5].nic.mac1609_4 	throughputMbps 	0.15489025313434
scalar RSUScenario.node[5].nic.mac1609_4 	throughputControlMbps 	0
scalar RSUScenario.node[5].nic.mac1609_4 	receivedFramesLowerMsg 	19336
scalar RSUScenario.node[5].nic.mac1609_4 	receivedBitsLowerPackets 	0
scalar RSUScenario.node[5].nic.mac1609_4 	receivedBitsLoserWsm 	0
scalar RSUScenario.node[5].nic.mac1609_4 	packetsNotForMe 	0
scalar RSUScenario.node[5].nic.mac1609_4 	receivedTotalBits 	20422624
scalar RSUScenario.node[5].nic.mac1609_4 	collisionsPktNonDecoded 	0
scalar RSUScenario.node[5].nic.mac1609_4 	ReceivedUnicastPackets 	0
scalar RSUScenario.node[5].nic.mac1609_4 	ReceivedBroadcasts 	19336
scalar RSUScenario.node[5].nic.mac1609_4 	SentPackets 	1274
scalar RSUScenario.node[5].nic.mac1609_4 	SNIRLostPackets 	382
scalar RSUScenario.node[5].nic.mac1609_4 	RXTXLostPackets 	0
scalar RSUScenario.node[5].nic.mac1609_4 	TotalLostPackets 	382
scalar RSUScenario.node[5].nic.mac1609_4 	DroppedPacketsInMac 	0
scalar RSUScenario.node[5].nic.mac1609_4 	TooLittleTime 	0
scalar RSUScenario.node[5].nic.mac1609_4 	TimesIntoBackoff 	1275
scalar RSUScenario.node[5].nic.mac1609_4 	SlotsBackoff 	1880
scalar RSUScenario.node[5].nic.mac1609_4 	NumInternalContention 	0
scalar RSUScenario.node[5].nic.mac1609_4 	totalBusyTime 	4.661194
scalar RSUScenario.node[5].nic.mac1609_4 	throughputMetricMac:last 	146.64902681488
attr source  throughputSignalMac
attr title  "throughputMetricMac, last"
scalar RSUScenario.node[5].nic.mac1609_4 	throughputMetricMac:count 	19336
attr source  throughputSignalMac
attr title  "throughputMetricMac, count"
scalar RSUScenario.node[5].nic.mac1609_4 	throughputMetricMac:sum 	2371623.7284144
attr source  throughputSignalMac
attr title  "throughputMetricMac, sum"
scalar RSUScenario.node[5].nic.mac1609_4 	throughputMetricMac:mean 	122.65327515589
attr source  throughputSignalMac
attr title  "throughputMetricMac, mean"
scalar RSUScenario.node[5].veinsmobility 	startTime 	4.6
scalar RSUScenario.node[5].veinsmobility 	totalTime 	127.2
scalar RSUScenario.node[5].veinsmobility 	stopTime 	131.9
scalar RSUScenario.node[5].veinsmobility 	minSpeed 	0.046491106722312
scalar RSUScenario.node[5].veinsmobility 	maxSpeed 	31.289783729354
scalar RSUScenario.node[5].veinsmobility 	totalDistance 	3275.167828606
scalar RSUScenario.node[5].veinsmobility 	totalCO2Emission 	734.03366820196
scalar RSUScenario.node[8].nic.phy80211p 	busyTime 	0.037464079601978
scalar RSUScenario.node[8].nic.mac1609_4 	throughputMetricMac 	148.47667579056
scalar RSUScenario.node[8].nic.mac1609_4 	throughputMbps 	0.15681828619554
scalar RSUScenario.node[8].nic.mac1609_4 	throughputControlMbps 	0
scalar RSUScenario.node[8].nic.mac1609_4 	receivedFramesLowerMsg 	19770
scalar RSUScenario.node[8].nic.mac1609_4 	receivedBitsLowerPackets 	0
scalar RSUScenario.node[8].nic.mac1609_4 	receivedBitsLoserWsm 	0
scalar RSUScenario.node[8].nic.mac1609_4 	packetsNotForMe 	0
scalar RSUScenario.node[8].nic.mac1609_4 	receivedTotalBits 	20880704
scalar RSUScenario.node[8].nic.mac1609_4 	collisionsPktNonDecoded 	0
scalar RSUScenario.node[8].nic.mac1609_4 	ReceivedUnicastPackets 	0
scalar RSUScenario.node[8].nic.mac1609_4 	ReceivedBroadcasts 	19770
scalar RSUScenario.node[8].nic.mac1609_4 	SentPackets 	1207
scalar RSUScenario.node[8].nic.mac1609_4 	SNIRLostPackets 	397
scalar RSUScenario.node[8].nic.mac1609_4 	RXTXLostPackets 	0
scalar RSUScenario.node[8].nic.mac1609_4 	TotalLostPackets 	397
scalar RSUScenario.node[8].nic.mac1609_4 	DroppedPacketsInMac 	0
scalar RSUScenario.node[8].nic.mac1609_4 	TooLittleTime 	0
scalar RSUScenario.node[8].nic.mac1609_4 	TimesIntoBackoff 	1208
scalar RSUScenario.node[8].nic.mac1609_4 	SlotsBackoff 	1830
scalar RSUScenario.node[8].nic.mac1609_4 	NumInternalContention 	0
scalar RSUScenario.node[8].nic.mac1609_4 	totalBusyTime 	4.74512725837
scalar RSUScenario.node[8].nic.mac1609_4 	throughputMetricMac:last 	148.47667579056
attr source  throughputSignalMac
attr title  "throughputMetricMac, last"
scalar RSUScenario.node[8].nic.mac1609_4 	throughputMetricMac:count 	19770
attr source  throughputSignalMac
attr title  "throughputMetricMac, count"
scalar RSUScenario.node[8].nic.mac1609_4 	throughputMetricMac:sum 	2367854.6295502
attr source  throughputSignalMac
attr title  "throughputMetricMac, sum"
scalar RSUScenario.node[8].nic.mac1609_4 	throughputMetricMac:mean 	119.77008748357
attr source  throughputSignalMac
attr title  "throughputMetricMac, mean"
scalar RSUScenario.node[8].veinsmobility 	startTime 	12.6
scalar RSUScenario.node[8].veinsmobility 	totalTime 	120.5
scalar RSUScenario.node[8].veinsmobility 	stopTime 	133.2
scalar RSUScenario.node[8].veinsmobility 	minSpeed 	0.25808881941368
scalar RSUScenario.node[8].veinsmobility 	maxSpeed 	31.289426738252
scalar RSUScenario.node[8].veinsmobility 	totalDistance 	3275.8717167861
scalar RSUScenario.node[8].veinsmobility 	totalCO2Emission 	726.14528929537
scalar RSUScenario.node[7].nic.phy80211p 	busyTime 	0.039488086087619
scalar RSUScenario.node[7].nic.mac1609_4 	throughputMetricMac 	160.18323315201
scalar RSUScenario.node[7].nic.mac1609_4 	throughputMbps 	0.1691871056782
scalar RSUScenario.node[7].nic.mac1609_4 	throughputControlMbps 	0
scalar RSUScenario.node[7].nic.mac1609_4 	receivedFramesLowerMsg 	22418
scalar RSUScenario.node[7].nic.mac1609_4 	receivedBitsLowerPackets 	0
scalar RSUScenario.node[7].nic.mac1609_4 	receivedBitsLoserWsm 	0
scalar RSUScenario.node[7].nic.mac1609_4 	packetsNotForMe 	0
scalar RSUScenario.node[7].nic.mac1609_4 	receivedTotalBits 	23678112
scalar RSUScenario.node[7].nic.mac1609_4 	collisionsPktNonDecoded 	0
scalar RSUScenario.node[7].nic.mac1609_4 	ReceivedUnicastPackets 	0
scalar RSUScenario.node[7].nic.mac1609_4 	ReceivedBroadcasts 	22418
scalar RSUScenario.node[7].nic.mac1609_4 	SentPackets 	1302
scalar RSUScenario.node[7].nic.mac1609_4 	SNIRLostPackets 	512
scalar RSUScenario.node[7].nic.mac1609_4 	RXTXLostPackets 	0
scalar RSUScenario.node[7].nic.mac1609_4 	TotalLostPackets 	512
scalar RSUScenario.node[7].nic.mac1609_4 	DroppedPacketsInMac 	0
scalar RSUScenario.node[7].nic.mac1609_4 	TooLittleTime 	0
scalar RSUScenario.node[7].nic.mac1609_4 	TimesIntoBackoff 	1305
scalar RSUScenario.node[7].nic.mac1609_4 	SlotsBackoff 	1965
scalar RSUScenario.node[7].nic.mac1609_4 	NumInternalContention 	0
scalar RSUScenario.node[7].nic.mac1609_4 	totalBusyTime 	5.372662
scalar RSUScenario.node[7].nic.mac1609_4 	throughputMetricMac:last 	160.18323315201
attr source  throughputSignalMac
attr title  "throughputMetricMac, last"
scalar RSUScenario.node[7].nic.mac1609_4 	throughputMetricMac:count 	22418
attr source  throughputSignalMac
attr title  "throughputMetricMac, count"
scalar RSUScenario.node[7].nic.mac1609_4 	throughputMetricMac:sum 	2910580.9085171
attr source  throughputSignalMac
attr title  "throughputMetricMac, sum"
scalar RSUScenario.node[7].nic.mac1609_4 	throughputMetricMac:mean 	129.83231816028
attr source  throughputSignalMac
attr title  "throughputMetricMac, mean"
scalar RSUScenario.node[7].veinsmobility 	startTime 	9.9
scalar RSUScenario.node[7].veinsmobility 	totalTime 	130
scalar RSUScenario.node[7].veinsmobility 	stopTime 	140
scalar RSUScenario.node[7].veinsmobility 	minSpeed 	0.0089422332260266
scalar RSUScenario.node[7].veinsmobility 	maxSpeed 	31.289936781079
scalar RSUScenario.node[7].veinsmobility 	totalDistance 	3274.039559142
scalar RSUScenario.node[7].veinsmobility 	totalCO2Emission 	733.10154768805
scalar RSUScenario.node[11].nic.phy80211p 	busyTime 	0.042654004954577
scalar RSUScenario.node[11].nic.mac1609_4 	throughputMetricMac 	158.23881875836
scalar RSUScenario.node[11].nic.mac1609_4 	throughputMbps 	0.16713328389548
scalar RSUScenario.node[11].nic.mac1609_4 	throughputControlMbps 	0
scalar RSUScenario.node[11].nic.mac1609_4 	receivedFramesLowerMsg 	22494
scalar RSUScenario.node[11].nic.mac1609_4 	receivedBitsLowerPackets 	0
scalar RSUScenario.node[11].nic.mac1609_4 	receivedBitsLoserWsm 	0
scalar RSUScenario.node[11].nic.mac1609_4 	packetsNotForMe 	0
scalar RSUScenario.node[11].nic.mac1609_4 	receivedTotalBits 	23758368
scalar RSUScenario.node[11].nic.mac1609_4 	collisionsPktNonDecoded 	0
scalar RSUScenario.node[11].nic.mac1609_4 	ReceivedUnicastPackets 	0
scalar RSUScenario.node[11].nic.mac1609_4 	ReceivedBroadcasts 	22494
scalar RSUScenario.node[11].nic.mac1609_4 	SentPackets 	1212
scalar RSUScenario.node[11].nic.mac1609_4 	SNIRLostPackets 	561
scalar RSUScenario.node[11].nic.mac1609_4 	RXTXLostPackets 	0
scalar RSUScenario.node[11].nic.mac1609_4 	TotalLostPackets 	561
scalar RSUScenario.node[11].nic.mac1609_4 	DroppedPacketsInMac 	0
scalar RSUScenario.node[11].nic.mac1609_4 	TooLittleTime 	0
scalar RSUScenario.node[11].nic.mac1609_4 	TimesIntoBackoff 	1214
scalar RSUScenario.node[11].nic.mac1609_4 	SlotsBackoff 	1820
scalar RSUScenario.node[11].nic.mac1609_4 	NumInternalContention 	0
scalar RSUScenario.node[11].nic.mac1609_4 	totalBusyTime 	5.375247275185
scalar RSUScenario.node[11].nic.mac1609_4 	throughputMetricMac:last 	158.23881875836
attr source  throughputSignalMac
attr title  "throughputMetricMac, last"
scalar RSUScenario.node[11].nic.mac1609_4 	throughputMetricMac:count 	22494
attr source  throughputSignalMac
attr title  "throughputMetricMac, count"
scalar RSUScenario.node[11].nic.mac1609_4 	throughputMetricMac:sum 	2769069.8240096
attr source  throughputSignalMac
attr title  "throughputMetricMac, sum"
scalar RSUScenario.node[11].nic.mac1609_4 	throughputMetricMac:mean 	123.10259731526
attr source  throughputSignalMac
attr title  "throughputMetricMac, mean"
scalar RSUScenario.node[11].veinsmobility 	startTime 	21.1
scalar RSUScenario.node[11].veinsmobility 	totalTime 	121
scalar RSUScenario.node[11].veinsmobility 	stopTime 	142.2
scalar RSUScenario.node[11].veinsmobility 	minSpeed 	0.25902033208427
scalar RSUScenario.node[11].veinsmobility 	maxSpeed 	31.289606555924
scalar RSUScenario.node[11].veinsmobility 	totalDistance 	3276.3389898026
scalar RSUScenario.node[11].veinsmobility 	totalCO2Emission 	719.48973771641
scalar RSUScenario.node[9].nic.phy80211p 	busyTime 	0.040879698795177
scalar RSUScenario.node[9].nic.mac1609_4 	throughputMetricMac 	163.53252572529
scalar RSUScenario.node[9].nic.mac1609_4 	throughputMbps 	0.17272062721191
scalar RSUScenario.node[9].nic.mac1609_4 	throughputControlMbps 	0
scalar RSUScenario.node[9].nic.mac1609_4 	receivedFramesLowerMsg 	24195
scalar RSUScenario.node[9].nic.mac1609_4 	receivedBitsLowerPackets 	0
scalar RSUScenario.node[9].nic.mac1609_4 	receivedBitsLoserWsm 	0
scalar RSUScenario.node[9].nic.mac1609_4 	packetsNotForMe 	0
scalar RSUScenario.node[9].nic.mac1609_4 	receivedTotalBits 	25554400
scalar RSUScenario.node[9].nic.mac1609_4 	collisionsPktNonDecoded 	0
scalar RSUScenario.node[9].nic.mac1609_4 	ReceivedUnicastPackets 	0
scalar RSUScenario.node[9].nic.mac1609_4 	ReceivedBroadcasts 	24195
scalar RSUScenario.node[9].nic.mac1609_4 	SentPackets 	1329
scalar RSUScenario.node[9].nic.mac1609_4 	SNIRLostPackets 	36
scalar RSUScenario.node[9].nic.mac1609_4 	RXTXLostPackets 	0
scalar RSUScenario.node[9].nic.mac1609_4 	TotalLostPackets 	36
scalar RSUScenario.node[9].nic.mac1609_4 	DroppedPacketsInMac 	0
scalar RSUScenario.node[9].nic.mac1609_4 	TooLittleTime 	0
scalar RSUScenario.node[9].nic.mac1609_4 	TimesIntoBackoff 	1329
scalar RSUScenario.node[9].nic.mac1609_4 	SlotsBackoff 	1967
scalar RSUScenario.node[9].nic.mac1609_4 	NumInternalContention 	0
scalar RSUScenario.node[9].nic.mac1609_4 	totalBusyTime 	5.726577044007
scalar RSUScenario.node[9].nic.mac1609_4 	throughputMetricMac:last 	163.53252572529
attr source  throughputSignalMac
attr title  "throughputMetricMac, last"
scalar RSUScenario.node[9].nic.mac1609_4 	throughputMetricMac:count 	24195
attr source  throughputSignalMac
attr title  "throughputMetricMac, count"
scalar RSUScenario.node[9].nic.mac1609_4 	throughputMetricMac:sum 	3117946.8145207
attr source  throughputSignalMac
attr title  "throughputMetricMac, sum"
scalar RSUScenario.node[9].nic.mac1609_4 	throughputMetricMac:mean 	128.86740295601
attr source  throughputSignalMac
attr title  "throughputMetricMac, mean"
scalar RSUScenario.node[9].veinsmobility 	startTime 	15.2
scalar RSUScenario.node[9].veinsmobility 	totalTime 	132.7
scalar RSUScenario.node[9].veinsmobility 	stopTime 	148
scalar RSUScenario.node[9].veinsmobility 	minSpeed 	0.010577104895261
scalar RSUScenario.node[9].veinsmobility 	maxSpeed 	31.289745033977
scalar RSUScenario.node[9].veinsmobility 	totalDistance 	3273.7889474113
scalar RSUScenario.node[9].veinsmobility 	totalCO2Emission 	734.91951599048
scalar RSUScenario.node[0].nic.phy80211p 	busyTime 	0.037937843665766
scalar RSUScenario.node[0].nic.mac1609_4 	throughputMetricMac 	169.0510241971
scalar RSUScenario.node[0].nic.mac1609_4 	throughputMbps 	0.17854956851482
scalar RSUScenario.node[0].nic.mac1609_4 	throughputControlMbps 	0
scalar RSUScenario.node[0].nic.mac1609_4 	receivedFramesLowerMsg 	25096
scalar RSUScenario.node[0].nic.mac1609_4 	receivedBitsLowerPackets 	0
scalar RSUScenario.node[0].nic.mac1609_4 	receivedBitsLoserWsm 	0
scalar RSUScenario.node[0].nic.mac1609_4 	packetsNotForMe 	0
scalar RSUScenario.node[0].nic.mac1609_4 	receivedTotalBits 	26506080
scalar RSUScenario.node[0].nic.mac1609_4 	collisionsPktNonDecoded 	0
scalar RSUScenario.node[0].nic.mac1609_4 	ReceivedUnicastPackets 	0
scalar RSUScenario.node[0].nic.mac1609_4 	ReceivedBroadcasts 	25096
scalar RSUScenario.node[0].nic.mac1609_4 	SentPackets 	1485
scalar RSUScenario.node[0].nic.mac1609_4 	SNIRLostPackets 	33
scalar RSUScenario.node[0].nic.mac1609_4 	RXTXLostPackets 	0
scalar RSUScenario.node[0].nic.mac1609_4 	TotalLostPackets 	33
scalar RSUScenario.node[0].nic.mac1609_4 	DroppedPacketsInMac 	0
scalar RSUScenario.node[0].nic.mac1609_4 	TooLittleTime 	0
scalar RSUScenario.node[0].nic.mac1609_4 	TimesIntoBackoff 	1485
scalar RSUScenario.node[0].nic.mac1609_4 	SlotsBackoff 	2278
scalar RSUScenario.node[0].nic.mac1609_4 	NumInternalContention 	0
scalar RSUScenario.node[0].nic.mac1609_4 	totalBusyTime 	5.962826754726
scalar RSUScenario.node[0].nic.mac1609_4 	throughputMetricMac:last 	169.0510241971
attr source  throughputSignalMac
attr title  "throughputMetricMac, last"
scalar RSUScenario.node[0].nic.mac1609_4 	throughputMetricMac:count 	25096
attr source  throughputSignalMac
attr title  "throughputMetricMac, count"
scalar RSUScenario.node[0].nic.mac1609_4 	throughputMetricMac:sum 	3466288.6231862
attr source  throughputSignalMac
attr title  "throughputMetricMac, sum"
scalar RSUScenario.node[0].nic.mac1609_4 	throughputMetricMac:mean 	138.1211596743
attr source  throughputSignalMac
attr title  "throughputMetricMac, mean"
scalar RSUScenario.node[0].veinsmobility 	startTime 	0.1
scalar RSUScenario.node[0].veinsmobility 	totalTime 	148.3
scalar RSUScenario.node[0].veinsmobility 	stopTime 	148.5
scalar RSUScenario.node[0].veinsmobility 	minSpeed 	0
scalar RSUScenario.node[0].veinsmobility 	maxSpeed 	31.289894360469
scalar RSUScenario.node[0].veinsmobility 	totalDistance 	3270.2069133462
scalar RSUScenario.node[0].veinsmobility 	totalCO2Emission 	762.47760069728
scalar RSUScenario.node[13].nic.phy80211p 	busyTime 	0.042493420621925
scalar RSUScenario.node[13].nic.mac1609_4 	throughputMetricMac 	155.24727361926
scalar RSUScenario.node[13].nic.mac1609_4 	throughputMbps 	0.16395612909399
scalar RSUScenario.node[13].nic.mac1609_4 	throughputControlMbps 	0
scalar RSUScenario.node[13].nic.mac1609_4 	receivedFramesLowerMsg 	23171
scalar RSUScenario.node[13].nic.mac1609_4 	receivedBitsLowerPackets 	0
scalar RSUScenario.node[13].nic.mac1609_4 	receivedBitsLoserWsm 	0
scalar RSUScenario.node[13].nic.mac1609_4 	packetsNotForMe 	0
scalar RSUScenario.node[13].nic.mac1609_4 	receivedTotalBits 	24470816
scalar RSUScenario.node[13].nic.mac1609_4 	collisionsPktNonDecoded 	0
scalar RSUScenario.node[13].nic.mac1609_4 	ReceivedUnicastPackets 	0
scalar RSUScenario.node[13].nic.mac1609_4 	ReceivedBroadcasts 	23171
scalar RSUScenario.node[13].nic.mac1609_4 	SentPackets 	1223
scalar RSUScenario.node[13].nic.mac1609_4 	SNIRLostPackets 	8
scalar RSUScenario.node[13].nic.mac1609_4 	RXTXLostPackets 	0
scalar RSUScenario.node[13].nic.mac1609_4 	TotalLostPackets 	8
scalar RSUScenario.node[13].nic.mac1609_4 	DroppedPacketsInMac 	0
scalar RSUScenario.node[13].nic.mac1609_4 	TooLittleTime 	0
scalar RSUScenario.node[13].nic.mac1609_4 	TimesIntoBackoff 	1359
scalar RSUScenario.node[13].nic.mac1609_4 	SlotsBackoff 	2066
scalar RSUScenario.node[13].nic.mac1609_4 	NumInternalContention 	0
scalar RSUScenario.node[13].nic.mac1609_4 	totalBusyTime 	5.466895
scalar RSUScenario.node[13].nic.mac1609_4 	throughputMetricMac:last 	155.24727361926
attr source  throughputSignalMac
attr title  "throughputMetricMac, last"
scalar RSUScenario.node[13].nic.mac1609_4 	throughputMetricMac:count 	23171
attr source  throughputSignalMac
attr title  "throughputMetricMac, count"
scalar RSUScenario.node[13].nic.mac1609_4 	throughputMetricMac:sum 	2731693.4417989
attr source  throughputSignalMac
attr title  "throughputMetricMac, sum"
scalar RSUScenario.node[13].nic.mac1609_4 	throughputMetricMac:mean 	117.89277294026
attr source  throughputSignalMac
attr title  "throughputMetricMac, mean"
scalar RSUScenario.node[13].veinsmobility 	startTime 	27.1
scalar RSUScenario.node[13].veinsmobility 	totalTime 	122.1
scalar RSUScenario.node[13].veinsmobility 	stopTime 	149.3
scalar RSUScenario.node[13].veinsmobility 	minSpeed 	0.2483948068053
scalar RSUScenario.node[13].veinsmobility 	maxSpeed 	31.289970024223
scalar RSUScenario.node[13].veinsmobility 	totalDistance 	3274.6448186127
scalar RSUScenario.node[13].veinsmobility 	totalCO2Emission 	727.71883963533
scalar RSUScenario.node[12].nic.phy80211p 	busyTime 	0.042171168627447
scalar RSUScenario.node[12].nic.mac1609_4 	throughputMetricMac 	158.301866883
scalar RSUScenario.node[12].nic.mac1609_4 	throughputMbps 	0.16718155181193
scalar RSUScenario.node[12].nic.mac1609_4 	throughputControlMbps 	0
scalar RSUScenario.node[12].nic.mac1609_4 	receivedFramesLowerMsg 	23991
scalar RSUScenario.node[12].nic.mac1609_4 	receivedBitsLowerPackets 	0
scalar RSUScenario.node[12].nic.mac1609_4 	receivedBitsLoserWsm 	0
scalar RSUScenario.node[12].nic.mac1609_4 	packetsNotForMe 	0
scalar RSUScenario.node[12].nic.mac1609_4 	receivedTotalBits 	25336736
scalar RSUScenario.node[12].nic.mac1609_4 	collisionsPktNonDecoded 	0
scalar RSUScenario.node[12].nic.mac1609_4 	ReceivedUnicastPackets 	0
scalar RSUScenario.node[12].nic.mac1609_4 	ReceivedBroadcasts 	23991
scalar RSUScenario.node[12].nic.mac1609_4 	SentPackets 	1276
scalar RSUScenario.node[12].nic.mac1609_4 	SNIRLostPackets 	10
scalar RSUScenario.node[12].nic.mac1609_4 	RXTXLostPackets 	0
scalar RSUScenario.node[12].nic.mac1609_4 	TotalLostPackets 	10
scalar RSUScenario.node[12].nic.mac1609_4 	DroppedPacketsInMac 	0
scalar RSUScenario.node[12].nic.mac1609_4 	TooLittleTime 	0
scalar RSUScenario.node[12].nic.mac1609_4 	TimesIntoBackoff 	1277
scalar RSUScenario.node[12].nic.mac1609_4 	SlotsBackoff 	1922
scalar RSUScenario.node[12].nic.mac1609_4 	NumInternalContention 	0
scalar RSUScenario.node[12].nic.mac1609_4 	totalBusyTime 	5.662934817672
scalar RSUScenario.node[12].nic.mac1609_4 	throughputMetricMac:last 	158.301866883
attr source  throughputSignalMac
attr title  "throughputMetricMac, last"
scalar RSUScenario.node[12].nic.mac1609_4 	throughputMetricMac:count 	23991
attr source  throughputSignalMac
attr title  "throughputMetricMac, count"
scalar RSUScenario.node[12].nic.mac1609_4 	throughputMetricMac:sum 	2937931.1019113
attr source  throughputSignalMac
attr title  "throughputMetricMac, sum"
scalar RSUScenario.node[12].nic.mac1609_4 	throughputMetricMac:mean 	122.45971830734
attr source  throughputSignalMac
attr title  "throughputMetricMac, mean"
scalar RSUScenario.node[12].veinsmobility 	startTime 	24.1
scalar RSUScenario.node[12].veinsmobility 	totalTime 	127.4
scalar RSUScenario.node[12].veinsmobility 	stopTime 	151.6
scalar RSUScenario.node[12].veinsmobility 	minSpeed 	0.010410139816174
scalar RSUScenario.node[12].veinsmobility 	maxSpeed 	31.28997836269
scalar RSUScenario.node[12].veinsmobility 	totalDistance 	3274.2473155197
scalar RSUScenario.node[12].veinsmobility 	totalCO2Emission 	730.09540690136
scalar RSUScenario.node[15].nic.phy80211p 	busyTime 	0.043583827671908
scalar RSUScenario.node[15].nic.mac1609_4 	throughputMetricMac 	152.67421660822
scalar RSUScenario.node[15].nic.mac1609_4 	throughputMbps 	0.16123854163338
scalar RSUScenario.node[15].nic.mac1609_4 	throughputControlMbps 	0
scalar RSUScenario.node[15].nic.mac1609_4 	receivedFramesLowerMsg 	23474
scalar RSUScenario.node[15].nic.mac1609_4 	receivedBitsLowerPackets 	0
scalar RSUScenario.node[15].nic.mac1609_4 	receivedBitsLoserWsm 	0
scalar RSUScenario.node[15].nic.mac1609_4 	packetsNotForMe 	0
scalar RSUScenario.node[15].nic.mac1609_4 	receivedTotalBits 	24790784
scalar RSUScenario.node[15].nic.mac1609_4 	collisionsPktNonDecoded 	0
scalar RSUScenario.node[15].nic.mac1609_4 	ReceivedUnicastPackets 	0
scalar RSUScenario.node[15].nic.mac1609_4 	ReceivedBroadcasts 	23474
scalar RSUScenario.node[15].nic.mac1609_4 	SentPackets 	1208
scalar RSUScenario.node[15].nic.mac1609_4 	SNIRLostPackets 	8
scalar RSUScenario.node[15].nic.mac1609_4 	RXTXLostPackets 	0
scalar RSUScenario.node[15].nic.mac1609_4 	TotalLostPackets 	8
scalar RSUScenario.node[15].nic.mac1609_4 	DroppedPacketsInMac 	0
scalar RSUScenario.node[15].nic.mac1609_4 	TooLittleTime 	0
scalar RSUScenario.node[15].nic.mac1609_4 	TimesIntoBackoff 	1208
scalar RSUScenario.node[15].nic.mac1609_4 	SlotsBackoff 	1860
scalar RSUScenario.node[15].nic.mac1609_4 	NumInternalContention 	0
scalar RSUScenario.node[15].nic.mac1609_4 	totalBusyTime 	5.531392
scalar RSUScenario.node[15].nic.mac1609_4 	throughputMetricMac:last 	152.67421660822
attr source  throughputSignalMac
attr title  "throughputMetricMac, last"
scalar RSUScenario.node[15].nic.mac1609_4 	throughputMetricMac:count 	23474
attr source  throughputSignalMac
attr title  "throughputMetricMac, count"
scalar RSUScenario.node[15].nic.mac1609_4 	throughputMetricMac:sum 	2700467.3416171
attr source  throughputSignalMac
attr title  "throughputMetricMac, sum"
scalar RSUScenario.node[15].nic.mac1609_4 	throughputMetricMac:mean 	115.04078306284
attr source  throughputSignalMac
attr title  "throughputMetricMac, mean"
scalar RSUScenario.node[15].veinsmobility 	startTime 	33.1
scalar RSUScenario.node[15].veinsmobility 	totalTime 	120.6
scalar RSUScenario.node[15].veinsmobility 	stopTime 	153.8
scalar RSUScenario.node[15].veinsmobility 	minSpeed 	0.25809441138431
scalar RSUScenario.node[15].veinsmobility 	maxSpeed 	31.289936174387
scalar RSUScenario.node[15].veinsmobility 	totalDistance 	3275.8863340606
scalar RSUScenario.node[15].veinsmobility 	totalCO2Emission 	710.20287898489
scalar RSUScenario.node[14].nic.phy80211p 	busyTime 	0.044250176245209
scalar RSUScenario.node[14].nic.mac1609_4 	throughputMetricMac 	160.5188435659
scalar RSUScenario.node[14].nic.mac1609_4 	throughputMbps 	0.1695246407988
scalar RSUScenario.node[14].nic.mac1609_4 	throughputControlMbps 	0
scalar RSUScenario.node[14].nic.mac1609_4 	receivedFramesLowerMsg 	25772
scalar RSUScenario.node[14].nic.mac1609_4 	receivedBitsLowerPackets 	0
scalar RSUScenario.node[14].nic.mac1609_4 	receivedBitsLoserWsm 	0
scalar RSUScenario.node[14].nic.mac1609_4 	packetsNotForMe 	0
scalar RSUScenario.node[14].nic.mac1609_4 	receivedTotalBits 	27217920
scalar RSUScenario.node[14].nic.mac1609_4 	collisionsPktNonDecoded 	0
scalar RSUScenario.node[14].nic.mac1609_4 	ReceivedUnicastPackets 	0
scalar RSUScenario.node[14].nic.mac1609_4 	ReceivedBroadcasts 	25772
scalar RSUScenario.node[14].nic.mac1609_4 	SentPackets 	1306
scalar RSUScenario.node[14].nic.mac1609_4 	SNIRLostPackets 	5
scalar RSUScenario.node[14].nic.mac1609_4 	RXTXLostPackets 	0
scalar RSUScenario.node[14].nic.mac1609_4 	TotalLostPackets 	5
scalar RSUScenario.node[14].nic.mac1609_4 	DroppedPacketsInMac 	0
scalar RSUScenario.node[14].nic.mac1609_4 	TooLittleTime 	0
scalar RSUScenario.node[14].nic.mac1609_4 	TimesIntoBackoff 	1307
scalar RSUScenario.node[14].nic.mac1609_4 	SlotsBackoff 	1954
scalar RSUScenario.node[14].nic.mac1609_4 	NumInternalContention 	0
scalar RSUScenario.node[14].nic.mac1609_4 	totalBusyTime 	6.067746
scalar RSUScenario.node[14].nic.mac1609_4 	throughputMetricMac:last 	160.5188435659
attr source  throughputSignalMac
attr title  "throughputMetricMac, last"
scalar RSUScenario.node[14].nic.mac1609_4 	throughputMetricMac:count 	25772
attr source  throughputSignalMac
attr title  "throughputMetricMac, count"
scalar RSUScenario.node[14].nic.mac1609_4 	throughputMetricMac:sum 	3171914.2089262
attr source  throughputSignalMac
attr title  "throughputMetricMac, sum"
scalar RSUScenario.node[14].nic.mac1609_4 	throughputMetricMac:mean 	123.0759820319
attr source  throughputSignalMac
attr title  "throughputMetricMac, mean"
scalar RSUScenario.node[14].veinsmobility 	startTime 	30.1
scalar RSUScenario.node[14].veinsmobility 	totalTime 	130.4
scalar RSUScenario.node[14].veinsmobility 	stopTime 	160.6
scalar RSUScenario.node[14].veinsmobility 	minSpeed 	0.0035782027332314
scalar RSUScenario.node[14].veinsmobility 	maxSpeed 	31.28965975024
scalar RSUScenario.node[14].veinsmobility 	totalDistance 	3275.8586740651
scalar RSUScenario.node[14].veinsmobility 	totalCO2Emission 	729.15184782441
scalar RSUScenario.node[17].nic.phy80211p 	busyTime 	0.046318630806844
scalar RSUScenario.node[17].nic.mac1609_4 	throughputMetricMac 	156.79947959593
scalar RSUScenario.node[17].nic.mac1609_4 	throughputMbps 	0.16559825305876
scalar RSUScenario.node[17].nic.mac1609_4 	throughputControlMbps 	0
scalar RSUScenario.node[17].nic.mac1609_4 	receivedFramesLowerMsg 	25363
scalar RSUScenario.node[17].nic.mac1609_4 	receivedBitsLowerPackets 	0
scalar RSUScenario.node[17].nic.mac1609_4 	receivedBitsLoserWsm 	0
scalar RSUScenario.node[17].nic.mac1609_4 	packetsNotForMe 	0
scalar RSUScenario.node[17].nic.mac1609_4 	receivedTotalBits 	26786240
scalar RSUScenario.node[17].nic.mac1609_4 	collisionsPktNonDecoded 	0
scalar RSUScenario.node[17].nic.mac1609_4 	ReceivedUnicastPackets 	0
scalar RSUScenario.node[17].nic.mac1609_4 	ReceivedBroadcasts 	25363
scalar RSUScenario.node[17].nic.mac1609_4 	SentPackets 	1228
scalar RSUScenario.node[17].nic.mac1609_4 	SNIRLostPackets 	5
scalar RSUScenario.node[17].nic.mac1609_4 	RXTXLostPackets 	2
scalar RSUScenario.node[17].nic.mac1609_4 	TotalLostPackets 	7
scalar RSUScenario.node[17].nic.mac1609_4 	DroppedPacketsInMac 	0
scalar RSUScenario.node[17].nic.mac1609_4 	TooLittleTime 	0
scalar RSUScenario.node[17].nic.mac1609_4 	TimesIntoBackoff 	1228
scalar RSUScenario.node[17].nic.mac1609_4 	SlotsBackoff 	1815
scalar RSUScenario.node[17].nic.mac1609_4 	NumInternalContention 	0
scalar RSUScenario.node[17].nic.mac1609_4 	totalBusyTime 	5.958884
scalar RSUScenario.node[17].nic.mac1609_4 	throughputMetricMac:last 	156.79947959593
attr source  throughputSignalMac
attr title  "throughputMetricMac, last"
scalar RSUScenario.node[17].nic.mac1609_4 	throughputMetricMac:count 	25363
attr source  throughputSignalMac
attr title  "throughputMetricMac, count"
scalar RSUScenario.node[17].nic.mac1609_4 	throughputMetricMac:sum 	2938598.3793038
attr source  throughputSignalMac
attr title  "throughputMetricMac, sum"
scalar RSUScenario.node[17].nic.mac1609_4 	throughputMetricMac:mean 	115.86162438607
attr source  throughputSignalMac
attr title  "throughputMetricMac, mean"
scalar RSUScenario.node[17].veinsmobility 	startTime 	39.1
scalar RSUScenario.node[17].veinsmobility 	totalTime 	122.6
scalar RSUScenario.node[17].veinsmobility 	stopTime 	161.8
scalar RSUScenario.node[17].veinsmobility 	minSpeed 	0.25680212210654
scalar RSUScenario.node[17].veinsmobility 	maxSpeed 	31.28963251075
scalar RSUScenario.node[17].veinsmobility 	totalDistance 	3273.6525055421
scalar RSUScenario.node[17].veinsmobility 	totalCO2Emission 	721.96549789941
scalar RSUScenario.node[19].nic.phy80211p 	busyTime 	0.049540863787376
scalar RSUScenario.node[19].nic.mac1609_4 	throughputMetricMac 	160.89028954483
scalar RSUScenario.node[19].nic.mac1609_4 	throughputMbps 	0.16991774577889
scalar RSUScenario.node[19].nic.mac1609_4 	throughputControlMbps 	0
scalar RSUScenario.node[19].nic.mac1609_4 	receivedFramesLowerMsg 	26620
scalar RSUScenario.node[19].nic.mac1609_4 	receivedBitsLowerPackets 	0
scalar RSUScenario.node[19].nic.mac1609_4 	receivedBitsLoserWsm 	0
scalar RSUScenario.node[19].nic.mac1609_4 	packetsNotForMe 	0
scalar RSUScenario.node[19].nic.mac1609_4 	receivedTotalBits 	28113632
scalar RSUScenario.node[19].nic.mac1609_4 	collisionsPktNonDecoded 	0
scalar RSUScenario.node[19].nic.mac1609_4 	ReceivedUnicastPackets 	0
scalar RSUScenario.node[19].nic.mac1609_4 	ReceivedBroadcasts 	26620
scalar RSUScenario.node[19].nic.mac1609_4 	SentPackets 	1205
scalar RSUScenario.node[19].nic.mac1609_4 	SNIRLostPackets 	5
scalar RSUScenario.node[19].nic.mac1609_4 	RXTXLostPackets 	0
scalar RSUScenario.node[19].nic.mac1609_4 	TotalLostPackets 	5
scalar RSUScenario.node[19].nic.mac1609_4 	DroppedPacketsInMac 	0
scalar RSUScenario.node[19].nic.mac1609_4 	TooLittleTime 	0
scalar RSUScenario.node[19].nic.mac1609_4 	TimesIntoBackoff 	1205
scalar RSUScenario.node[19].nic.mac1609_4 	SlotsBackoff 	1803
scalar RSUScenario.node[19].nic.mac1609_4 	NumInternalContention 	0
scalar RSUScenario.node[19].nic.mac1609_4 	totalBusyTime 	6.235093
scalar RSUScenario.node[19].nic.mac1609_4 	throughputMetricMac:last 	160.89028954483
attr source  throughputSignalMac
attr title  "throughputMetricMac, last"
scalar RSUScenario.node[19].nic.mac1609_4 	throughputMetricMac:count 	26620
attr source  throughputSignalMac
attr title  "throughputMetricMac, count"
scalar RSUScenario.node[19].nic.mac1609_4 	throughputMetricMac:sum 	3070562.3956815
attr source  throughputSignalMac
attr title  "throughputMetricMac, sum"
scalar RSUScenario.node[19].nic.mac1609_4 	throughputMetricMac:mean 	115.34794874837
attr source  throughputSignalMac
attr title  "throughputMetricMac, mean"
scalar RSUScenario.node[19].veinsmobility 	startTime 	45.1
scalar RSUScenario.node[19].veinsmobility 	totalTime 	120.3
scalar RSUScenario.node[19].veinsmobility 	stopTime 	165.5
scalar RSUScenario.node[19].veinsmobility 	minSpeed 	0.25139466654928
scalar RSUScenario.node[19].veinsmobility 	maxSpeed 	31.289797694366
scalar RSUScenario.node[19].veinsmobility 	totalDistance 	3273.5380750659
scalar RSUScenario.node[19].veinsmobility 	totalCO2Emission 	710.340749554
scalar RSUScenario.node[10].nic.phy80211p 	busyTime 	0.046633101604285
scalar RSUScenario.node[10].nic.mac1609_4 	throughputMetricMac 	185.63191715925
scalar RSUScenario.node[10].nic.mac1609_4 	throughputMbps 	0.19606605090309
scalar RSUScenario.node[10].nic.mac1609_4 	throughputControlMbps 	0
scalar RSUScenario.node[10].nic.mac1609_4 	receivedFramesLowerMsg 	31122
scalar RSUScenario.node[10].nic.mac1609_4 	receivedBitsLowerPackets 	0
scalar RSUScenario.node[10].nic.mac1609_4 	receivedBitsLoserWsm 	0
scalar RSUScenario.node[10].nic.mac1609_4 	packetsNotForMe 	0
scalar RSUScenario.node[10].nic.mac1609_4 	receivedTotalBits 	32871328
scalar RSUScenario.node[10].nic.mac1609_4 	collisionsPktNonDecoded 	0
scalar RSUScenario.node[10].nic.mac1609_4 	ReceivedUnicastPackets 	0
scalar RSUScenario.node[10].nic.mac1609_4 	ReceivedBroadcasts 	31122
scalar RSUScenario.node[10].nic.mac1609_4 	SentPackets 	1497
scalar RSUScenario.node[10].nic.mac1609_4 	SNIRLostPackets 	16
scalar RSUScenario.node[10].nic.mac1609_4 	RXTXLostPackets 	1
scalar RSUScenario.node[10].nic.mac1609_4 	TotalLostPackets 	17
scalar RSUScenario.node[10].nic.mac1609_4 	DroppedPacketsInMac 	0
scalar RSUScenario.node[10].nic.mac1609_4 	TooLittleTime 	0
scalar RSUScenario.node[10].nic.mac1609_4 	TimesIntoBackoff 	1498
scalar RSUScenario.node[10].nic.mac1609_4 	SlotsBackoff 	2232
scalar RSUScenario.node[10].nic.mac1609_4 	NumInternalContention 	0
scalar RSUScenario.node[10].nic.mac1609_4 	totalBusyTime 	7.311883319867
scalar RSUScenario.node[10].nic.mac1609_4 	throughputMetricMac:last 	185.63191715925
attr source  throughputSignalMac
attr title  "throughputMetricMac, last"
scalar RSUScenario.node[10].nic.mac1609_4 	throughputMetricMac:count 	31122
attr source  throughputSignalMac
attr title  "throughputMetricMac, count"
scalar RSUScenario.node[10].nic.mac1609_4 	throughputMetricMac:sum 	4486072.5114682
attr source  throughputSignalMac
attr title  "throughputMetricMac, sum"
scalar RSUScenario.node[10].nic.mac1609_4 	throughputMetricMac:mean 	144.1447372106
attr source  throughputSignalMac
attr title  "throughputMetricMac, mean"
scalar RSUScenario.node[10].veinsmobility 	startTime 	18.1
scalar RSUScenario.node[10].veinsmobility 	totalTime 	149.5
scalar RSUScenario.node[10].veinsmobility 	stopTime 	167.7
scalar RSUScenario.node[10].veinsmobility 	minSpeed 	0
scalar RSUScenario.node[10].veinsmobility 	maxSpeed 	31.289705653847
scalar RSUScenario.node[10].veinsmobility 	totalDistance 	3270.1129103056
scalar RSUScenario.node[10].veinsmobility 	totalCO2Emission 	747.06896542524
scalar RSUScenario.node[16].nic.phy80211p 	busyTime 	0.047947048192774
scalar RSUScenario.node[16].nic.mac1609_4 	throughputMetricMac 	168.29296025631
scalar RSUScenario.node[16].nic.mac1609_4 	throughputMbps 	0.17774124459675
scalar RSUScenario.node[16].nic.mac1609_4 	throughputControlMbps 	0
scalar RSUScenario.node[16].nic.mac1609_4 	receivedFramesLowerMsg 	28417
scalar RSUScenario.node[16].nic.mac1609_4 	receivedBitsLowerPackets 	0
scalar RSUScenario.node[16].nic.mac1609_4 	receivedBitsLoserWsm 	0
scalar RSUScenario.node[16].nic.mac1609_4 	packetsNotForMe 	0
scalar RSUScenario.node[16].nic.mac1609_4 	receivedTotalBits 	30012384
scalar RSUScenario.node[16].nic.mac1609_4 	collisionsPktNonDecoded 	0
scalar RSUScenario.node[16].nic.mac1609_4 	ReceivedUnicastPackets 	0
scalar RSUScenario.node[16].nic.mac1609_4 	ReceivedBroadcasts 	28417
scalar RSUScenario.node[16].nic.mac1609_4 	SentPackets 	1329
scalar RSUScenario.node[16].nic.mac1609_4 	SNIRLostPackets 	5
scalar RSUScenario.node[16].nic.mac1609_4 	RXTXLostPackets 	3
scalar RSUScenario.node[16].nic.mac1609_4 	TotalLostPackets 	8
scalar RSUScenario.node[16].nic.mac1609_4 	DroppedPacketsInMac 	0
scalar RSUScenario.node[16].nic.mac1609_4 	TooLittleTime 	0
scalar RSUScenario.node[16].nic.mac1609_4 	TimesIntoBackoff 	1331
scalar RSUScenario.node[16].nic.mac1609_4 	SlotsBackoff 	2013
scalar RSUScenario.node[16].nic.mac1609_4 	NumInternalContention 	0
scalar RSUScenario.node[16].nic.mac1609_4 	totalBusyTime 	6.665945
scalar RSUScenario.node[16].nic.mac1609_4 	throughputMetricMac:last 	168.29296025631
attr source  throughputSignalMac
attr title  "throughputMetricMac, last"
scalar RSUScenario.node[16].nic.mac1609_4 	throughputMetricMac:count 	28417
attr source  throughputSignalMac
attr title  "throughputMetricMac, count"
scalar RSUScenario.node[16].nic.mac1609_4 	throughputMetricMac:sum 	3532887.7451271
attr source  throughputSignalMac
attr title  "throughputMetricMac, sum"
scalar RSUScenario.node[16].nic.mac1609_4 	throughputMetricMac:mean 	124.32303709495
attr source  throughputSignalMac
attr title  "throughputMetricMac, mean"
scalar RSUScenario.node[16].veinsmobility 	startTime 	36.1
scalar RSUScenario.node[16].veinsmobility 	totalTime 	132.7
scalar RSUScenario.node[16].veinsmobility 	stopTime 	168.9
scalar RSUScenario.node[16].veinsmobility 	minSpeed 	0.020262644656805
scalar RSUScenario.node[16].veinsmobility 	maxSpeed 	31.289662595976
scalar RSUScenario.node[16].veinsmobility 	totalDistance 	3268.0667181694
scalar RSUScenario.node[16].veinsmobility 	totalCO2Emission 	736.41561859116
scalar RSUScenario.node[18].nic.phy80211p 	busyTime 	0.047585602503913
scalar RSUScenario.node[18].nic.mac1609_4 	throughputMetricMac 	159.76039885255
scalar RSUScenario.node[18].nic.mac1609_4 	throughputMbps 	0.16873071917198
scalar RSUScenario.node[18].nic.mac1609_4 	throughputControlMbps 	0
scalar RSUScenario.node[18].nic.mac1609_4 	receivedFramesLowerMsg 	27136
scalar RSUScenario.node[18].nic.mac1609_4 	receivedBitsLowerPackets 	0
scalar RSUScenario.node[18].nic.mac1609_4 	receivedBitsLoserWsm 	0
scalar RSUScenario.node[18].nic.mac1609_4 	packetsNotForMe 	0
scalar RSUScenario.node[18].nic.mac1609_4 	receivedTotalBits 	28659648
scalar RSUScenario.node[18].nic.mac1609_4 	collisionsPktNonDecoded 	0
scalar RSUScenario.node[18].nic.mac1609_4 	ReceivedUnicastPackets 	0
scalar RSUScenario.node[18].nic.mac1609_4 	ReceivedBroadcasts 	27136
scalar RSUScenario.node[18].nic.mac1609_4 	SentPackets 	1279
scalar RSUScenario.node[18].nic.mac1609_4 	SNIRLostPackets 	9
scalar RSUScenario.node[18].nic.mac1609_4 	RXTXLostPackets 	0
scalar RSUScenario.node[18].nic.mac1609_4 	TotalLostPackets 	9
scalar RSUScenario.node[18].nic.mac1609_4 	DroppedPacketsInMac 	0
scalar RSUScenario.node[18].nic.mac1609_4 	TooLittleTime 	0
scalar RSUScenario.node[18].nic.mac1609_4 	TimesIntoBackoff 	1279
scalar RSUScenario.node[18].nic.mac1609_4 	SlotsBackoff 	1920
scalar RSUScenario.node[18].nic.mac1609_4 	NumInternalContention 	0
scalar RSUScenario.node[18].nic.mac1609_4 	totalBusyTime 	6.368015
scalar RSUScenario.node[18].nic.mac1609_4 	throughputMetricMac:last 	159.76039885255
attr source  throughputSignalMac
attr title  "throughputMetricMac, last"
scalar RSUScenario.node[18].nic.mac1609_4 	throughputMetricMac:count 	27136
attr source  throughputSignalMac
attr title  "throughputMetricMac, count"
scalar RSUScenario.node[18].nic.mac1609_4 	throughputMetricMac:sum 	3157509.8778767
attr source  throughputSignalMac
attr title  "throughputMetricMac, sum"
scalar RSUScenario.node[18].nic.mac1609_4 	throughputMetricMac:mean 	116.35870717411
attr source  throughputSignalMac
attr title  "throughputMetricMac, mean"
scalar RSUScenario.node[18].veinsmobility 	startTime 	42.1
scalar RSUScenario.node[18].veinsmobility 	totalTime 	127.7
scalar RSUScenario.node[18].veinsmobility 	stopTime 	169.9
scalar RSUScenario.node[18].veinsmobility 	minSpeed 	0.16621129165392
scalar RSUScenario.node[18].veinsmobility 	maxSpeed 	31.28993709066
scalar RSUScenario.node[18].veinsmobility 	totalDistance 	3270.9395075763
scalar RSUScenario.node[18].veinsmobility 	totalCO2Emission 	720.44904964562
scalar RSUScenario.node[21].nic.phy80211p 	busyTime 	0.048383046357615
scalar RSUScenario.node[21].nic.mac1609_4 	throughputMetricMac 	151.75058420211
scalar RSUScenario.node[21].nic.mac1609_4 	throughputMbps 	0.16027338207269
scalar RSUScenario.node[21].nic.mac1609_4 	throughputControlMbps 	0
scalar RSUScenario.node[21].nic.mac1609_4 	receivedFramesLowerMsg 	26079
scalar RSUScenario.node[21].nic.mac1609_4 	receivedBitsLowerPackets 	0
scalar RSUScenario.node[21].nic.mac1609_4 	receivedBitsLoserWsm 	0
scalar RSUScenario.node[21].nic.mac1609_4 	packetsNotForMe 	0
scalar RSUScenario.node[21].nic.mac1609_4 	receivedTotalBits 	27543680
scalar RSUScenario.node[21].nic.mac1609_4 	collisionsPktNonDecoded 	0
scalar RSUScenario.node[21].nic.mac1609_4 	ReceivedUnicastPackets 	0
scalar RSUScenario.node[21].nic.mac1609_4 	ReceivedBroadcasts 	26079
scalar RSUScenario.node[21].nic.mac1609_4 	SentPackets 	1209
scalar RSUScenario.node[21].nic.mac1609_4 	SNIRLostPackets 	9
scalar RSUScenario.node[21].nic.mac1609_4 	RXTXLostPackets 	0
scalar RSUScenario.node[21].nic.mac1609_4 	TotalLostPackets 	9
scalar RSUScenario.node[21].nic.mac1609_4 	DroppedPacketsInMac 	0
scalar RSUScenario.node[21].nic.mac1609_4 	TooLittleTime 	0
scalar RSUScenario.node[21].nic.mac1609_4 	TimesIntoBackoff 	1210
scalar RSUScenario.node[21].nic.mac1609_4 	SlotsBackoff 	1823
scalar RSUScenario.node[21].nic.mac1609_4 	NumInternalContention 	0
scalar RSUScenario.node[21].nic.mac1609_4 	totalBusyTime 	6.115497
scalar RSUScenario.node[21].nic.mac1609_4 	throughputMetricMac:last 	151.75058420211
attr source  throughputSignalMac
attr title  "throughputMetricMac, last"
scalar RSUScenario.node[21].nic.mac1609_4 	throughputMetricMac:count 	26079
attr source  throughputSignalMac
attr title  "throughputMetricMac, count"
scalar RSUScenario.node[21].nic.mac1609_4 	throughputMetricMac:sum 	2819655.4574279
attr source  throughputSignalMac
attr title  "throughputMetricMac, sum"
scalar RSUScenario.node[21].nic.mac1609_4 	throughputMetricMac:mean 	108.1197690643
attr source  throughputSignalMac
attr title  "throughputMetricMac, mean"
scalar RSUScenario.node[21].veinsmobility 	startTime 	51.1
scalar RSUScenario.node[21].veinsmobility 	totalTime 	120.7
scalar RSUScenario.node[21].veinsmobility 	stopTime 	171.9
scalar RSUScenario.node[21].veinsmobility 	minSpeed 	0.25963777161622
scalar RSUScenario.node[21].veinsmobility 	maxSpeed 	31.289799459716
scalar RSUScenario.node[21].veinsmobility 	totalDistance 	3274.1419603713
scalar RSUScenario.node[21].veinsmobility 	totalCO2Emission 	712.37338533044
scalar RSUScenario.node[23].nic.phy80211p 	busyTime 	0.049187661691542
scalar RSUScenario.node[23].nic.mac1609_4 	throughputMetricMac 	149.00845047525
scalar RSUScenario.node[23].nic.mac1609_4 	throughputMbps 	0.15737940208463
scalar RSUScenario.node[23].nic.mac1609_4 	throughputControlMbps 	0
scalar RSUScenario.node[23].nic.mac1609_4 	receivedFramesLowerMsg 	26472
scalar RSUScenario.node[23].nic.mac1609_4 	receivedBitsLowerPackets 	0
scalar RSUScenario.node[23].nic.mac1609_4 	receivedBitsLoserWsm 	0
scalar RSUScenario.node[23].nic.mac1609_4 	packetsNotForMe 	0
scalar RSUScenario.node[23].nic.mac1609_4 	receivedTotalBits 	27959136
scalar RSUScenario.node[23].nic.mac1609_4 	collisionsPktNonDecoded 	0
scalar RSUScenario.node[23].nic.mac1609_4 	ReceivedUnicastPackets 	0
scalar RSUScenario.node[23].nic.mac1609_4 	ReceivedBroadcasts 	26472
scalar RSUScenario.node[23].nic.mac1609_4 	SentPackets 	1207
scalar RSUScenario.node[23].nic.mac1609_4 	SNIRLostPackets 	6
scalar RSUScenario.node[23].nic.mac1609_4 	RXTXLostPackets 	0
scalar RSUScenario.node[23].nic.mac1609_4 	TotalLostPackets 	6
scalar RSUScenario.node[23].nic.mac1609_4 	DroppedPacketsInMac 	0
scalar RSUScenario.node[23].nic.mac1609_4 	TooLittleTime 	0
scalar RSUScenario.node[23].nic.mac1609_4 	TimesIntoBackoff 	1208
scalar RSUScenario.node[23].nic.mac1609_4 	SlotsBackoff 	1828
scalar RSUScenario.node[23].nic.mac1609_4 	NumInternalContention 	0
scalar RSUScenario.node[23].nic.mac1609_4 	totalBusyTime 	6.202671
scalar RSUScenario.node[23].nic.mac1609_4 	throughputMetricMac:last 	149.00845047525
attr source  throughputSignalMac
attr title  "throughputMetricMac, last"
scalar RSUScenario.node[23].nic.mac1609_4 	throughputMetricMac:count 	26472
attr source  throughputSignalMac
attr title  "throughputMetricMac, count"
scalar RSUScenario.node[23].nic.mac1609_4 	throughputMetricMac:sum 	2776343.0034866
attr source  throughputSignalMac
attr title  "throughputMetricMac, sum"
scalar RSUScenario.node[23].nic.mac1609_4 	throughputMetricMac:mean 	104.87847550191
attr source  throughputSignalMac
attr title  "throughputMetricMac, mean"
scalar RSUScenario.node[23].veinsmobility 	startTime 	57.1
scalar RSUScenario.node[23].veinsmobility 	totalTime 	120.5
scalar RSUScenario.node[23].veinsmobility 	stopTime 	177.7
scalar RSUScenario.node[23].veinsmobility 	minSpeed 	0.25511248833244
scalar RSUScenario.node[23].veinsmobility 	maxSpeed 	31.289924988581
scalar RSUScenario.node[23].veinsmobility 	totalDistance 	3273.5843569146
scalar RSUScenario.node[23].veinsmobility 	totalCO2Emission 	708.1905285028
scalar RSUScenario.node[22].nic.phy80211p 	busyTime 	0.048565233644862
scalar RSUScenario.node[22].nic.mac1609_4 	throughputMetricMac 	152.53129540122
scalar RSUScenario.node[22].nic.mac1609_4 	throughputMbps 	0.1611000574378
scalar RSUScenario.node[22].nic.mac1609_4 	throughputControlMbps 	0
scalar RSUScenario.node[22].nic.mac1609_4 	receivedFramesLowerMsg 	27830
scalar RSUScenario.node[22].nic.mac1609_4 	receivedBitsLowerPackets 	0
scalar RSUScenario.node[22].nic.mac1609_4 	receivedBitsLoserWsm 	0
scalar RSUScenario.node[22].nic.mac1609_4 	packetsNotForMe 	0
scalar RSUScenario.node[22].nic.mac1609_4 	receivedTotalBits 	29393408
scalar RSUScenario.node[22].nic.mac1609_4 	collisionsPktNonDecoded 	0
scalar RSUScenario.node[22].nic.mac1609_4 	ReceivedUnicastPackets 	0
scalar RSUScenario.node[22].nic.mac1609_4 	ReceivedBroadcasts 	27830
scalar RSUScenario.node[22].nic.mac1609_4 	SentPackets 	1285
scalar RSUScenario.node[22].nic.mac1609_4 	SNIRLostPackets 	4
scalar RSUScenario.node[22].nic.mac1609_4 	RXTXLostPackets 	0
scalar RSUScenario.node[22].nic.mac1609_4 	TotalLostPackets 	4
scalar RSUScenario.node[22].nic.mac1609_4 	DroppedPacketsInMac 	0
scalar RSUScenario.node[22].nic.mac1609_4 	TooLittleTime 	0
scalar RSUScenario.node[22].nic.mac1609_4 	TimesIntoBackoff 	1286
scalar RSUScenario.node[22].nic.mac1609_4 	SlotsBackoff 	1988
scalar RSUScenario.node[22].nic.mac1609_4 	NumInternalContention 	0
scalar RSUScenario.node[22].nic.mac1609_4 	totalBusyTime 	6.524229
scalar RSUScenario.node[22].nic.mac1609_4 	throughputMetricMac:last 	152.53129540122
attr source  throughputSignalMac
attr title  "throughputMetricMac, last"
scalar RSUScenario.node[22].nic.mac1609_4 	throughputMetricMac:count 	27830
attr source  throughputSignalMac
attr title  "throughputMetricMac, count"
scalar RSUScenario.node[22].nic.mac1609_4 	throughputMetricMac:sum 	3035429.9248254
attr source  throughputSignalMac
attr title  "throughputMetricMac, sum"
scalar RSUScenario.node[22].nic.mac1609_4 	throughputMetricMac:mean 	109.07042489491
attr source  throughputSignalMac
attr title  "throughputMetricMac, mean"
scalar RSUScenario.node[22].veinsmobility 	startTime 	54.1
scalar RSUScenario.node[22].veinsmobility 	totalTime 	128.3
scalar RSUScenario.node[22].veinsmobility 	stopTime 	182.5
scalar RSUScenario.node[22].veinsmobility 	minSpeed 	0.0020026044022595
scalar RSUScenario.node[22].veinsmobility 	maxSpeed 	31.289999478573
scalar RSUScenario.node[22].veinsmobility 	totalDistance 	3276.3401185964
scalar RSUScenario.node[22].veinsmobility 	totalCO2Emission 	721.10240322469
scalar RSUScenario.node[25].nic.phy80211p 	busyTime 	0.048854299835255
scalar RSUScenario.node[25].nic.mac1609_4 	throughputMetricMac 	143.49891169591
scalar RSUScenario.node[25].nic.mac1609_4 	throughputMbps 	0.15156156738674
scalar RSUScenario.node[25].nic.mac1609_4 	throughputControlMbps 	0
scalar RSUScenario.node[25].nic.mac1609_4 	receivedFramesLowerMsg 	26469
scalar RSUScenario.node[25].nic.mac1609_4 	receivedBitsLowerPackets 	0
scalar RSUScenario.node[25].nic.mac1609_4 	receivedBitsLoserWsm 	0
scalar RSUScenario.node[25].nic.mac1609_4 	packetsNotForMe 	0
scalar RSUScenario.node[25].nic.mac1609_4 	receivedTotalBits 	27956192
scalar RSUScenario.node[25].nic.mac1609_4 	collisionsPktNonDecoded 	0
scalar RSUScenario.node[25].nic.mac1609_4 	ReceivedUnicastPackets 	0
scalar RSUScenario.node[25].nic.mac1609_4 	ReceivedBroadcasts 	26469
scalar RSUScenario.node[25].nic.mac1609_4 	SentPackets 	1215
scalar RSUScenario.node[25].nic.mac1609_4 	SNIRLostPackets 	3
scalar RSUScenario.node[25].nic.mac1609_4 	RXTXLostPackets 	1
scalar RSUScenario.node[25].nic.mac1609_4 	TotalLostPackets 	4
scalar RSUScenario.node[25].nic.mac1609_4 	DroppedPacketsInMac 	0
scalar RSUScenario.node[25].nic.mac1609_4 	TooLittleTime 	0
scalar RSUScenario.node[25].nic.mac1609_4 	TimesIntoBackoff 	1215
scalar RSUScenario.node[25].nic.mac1609_4 	SlotsBackoff 	1776
scalar RSUScenario.node[25].nic.mac1609_4 	NumInternalContention 	0
scalar RSUScenario.node[25].nic.mac1609_4 	totalBusyTime 	6.203615
scalar RSUScenario.node[25].nic.mac1609_4 	throughputMetricMac:last 	143.49891169591
attr source  throughputSignalMac
attr title  "throughputMetricMac, last"
scalar RSUScenario.node[25].nic.mac1609_4 	throughputMetricMac:count 	26469
attr source  throughputSignalMac
attr title  "throughputMetricMac, count"
scalar RSUScenario.node[25].nic.mac1609_4 	throughputMetricMac:sum 	2663379.6066464
attr source  throughputSignalMac
attr title  "throughputMetricMac, sum"
scalar RSUScenario.node[25].nic.mac1609_4 	throughputMetricMac:mean 	100.62260027377
attr source  throughputSignalMac
attr title  "throughputMetricMac, mean"
scalar RSUScenario.node[25].veinsmobility 	startTime 	63.1
scalar RSUScenario.node[25].veinsmobility 	totalTime 	121.3
scalar RSUScenario.node[25].veinsmobility 	stopTime 	184.5
scalar RSUScenario.node[25].veinsmobility 	minSpeed 	0.25819678939763
scalar RSUScenario.node[25].veinsmobility 	maxSpeed 	31.289873845768
scalar RSUScenario.node[25].veinsmobility 	totalDistance 	3275.3153151058
scalar RSUScenario.node[25].veinsmobility 	totalCO2Emission 	712.97891637757
scalar RSUScenario.node[27].nic.phy80211p 	busyTime 	0.045572761747729
scalar RSUScenario.node[27].nic.mac1609_4 	throughputMetricMac 	129.60564914089
scalar RSUScenario.node[27].nic.mac1609_4 	throughputMbps 	0.13689180755707
scalar RSUScenario.node[27].nic.mac1609_4 	throughputControlMbps 	0
scalar RSUScenario.node[27].nic.mac1609_4 	receivedFramesLowerMsg 	24671
scalar RSUScenario.node[27].nic.mac1609_4 	receivedBitsLowerPackets 	0
scalar RSUScenario.node[27].nic.mac1609_4 	receivedBitsLoserWsm 	0
scalar RSUScenario.node[27].nic.mac1609_4 	packetsNotForMe 	0
scalar RSUScenario.node[27].nic.mac1609_4 	receivedTotalBits 	26057952
scalar RSUScenario.node[27].nic.mac1609_4 	collisionsPktNonDecoded 	0
scalar RSUScenario.node[27].nic.mac1609_4 	ReceivedUnicastPackets 	0
scalar RSUScenario.node[27].nic.mac1609_4 	ReceivedBroadcasts 	24671
scalar RSUScenario.node[27].nic.mac1609_4 	SentPackets 	1214
scalar RSUScenario.node[27].nic.mac1609_4 	SNIRLostPackets 	3
scalar RSUScenario.node[27].nic.mac1609_4 	RXTXLostPackets 	0
scalar RSUScenario.node[27].nic.mac1609_4 	TotalLostPackets 	3
scalar RSUScenario.node[27].nic.mac1609_4 	DroppedPacketsInMac 	0
scalar RSUScenario.node[27].nic.mac1609_4 	TooLittleTime 	0
scalar RSUScenario.node[27].nic.mac1609_4 	TimesIntoBackoff 	2112
scalar RSUScenario.node[27].nic.mac1609_4 	SlotsBackoff 	3181
scalar RSUScenario.node[27].nic.mac1609_4 	NumInternalContention 	0
scalar RSUScenario.node[27].nic.mac1609_4 	totalBusyTime 	5.800454
scalar RSUScenario.node[27].nic.mac1609_4 	throughputMetricMac:last 	129.60564914089
attr source  throughputSignalMac
attr title  "throughputMetricMac, last"
scalar RSUScenario.node[27].nic.mac1609_4 	throughputMetricMac:count 	24671
attr source  throughputSignalMac
attr title  "throughputMetricMac, count"
scalar RSUScenario.node[27].nic.mac1609_4 	throughputMetricMac:sum 	2203690.6867805
attr source  throughputSignalMac
attr title  "throughputMetricMac, sum"
scalar RSUScenario.node[27].nic.mac1609_4 	throughputMetricMac:mean 	89.323119726827
attr source  throughputSignalMac
attr title  "throughputMetricMac, mean"
scalar RSUScenario.node[27].veinsmobility 	startTime 	69.1
scalar RSUScenario.node[27].veinsmobility 	totalTime 	121.2
scalar RSUScenario.node[27].veinsmobility 	stopTime 	190.4
scalar RSUScenario.node[27].veinsmobility 	minSpeed 	0.2522267021325
scalar RSUScenario.node[27].veinsmobility 	maxSpeed 	31.289831926851
scalar RSUScenario.node[27].veinsmobility 	totalDistance 	3275.3547075334
scalar RSUScenario.node[27].veinsmobility 	totalCO2Emission 	707.05692888657
scalar RSUScenario.node[26].nic.phy80211p 	busyTime 	0.048429011673154
scalar RSUScenario.node[26].nic.mac1609_4 	throughputMetricMac 	142.7669498569
scalar RSUScenario.node[26].nic.mac1609_4 	throughputMbps 	0.15079183621002
scalar RSUScenario.node[26].nic.mac1609_4 	throughputControlMbps 	0
scalar RSUScenario.node[26].nic.mac1609_4 	receivedFramesLowerMsg 	27774
scalar RSUScenario.node[26].nic.mac1609_4 	receivedBitsLowerPackets 	0
scalar RSUScenario.node[26].nic.mac1609_4 	receivedBitsLoserWsm 	0
scalar RSUScenario.node[26].nic.mac1609_4 	packetsNotForMe 	0
scalar RSUScenario.node[26].nic.mac1609_4 	receivedTotalBits 	29335168
scalar RSUScenario.node[26].nic.mac1609_4 	collisionsPktNonDecoded 	0
scalar RSUScenario.node[26].nic.mac1609_4 	ReceivedUnicastPackets 	0
scalar RSUScenario.node[26].nic.mac1609_4 	ReceivedBroadcasts 	27774
scalar RSUScenario.node[26].nic.mac1609_4 	SentPackets 	1286
scalar RSUScenario.node[26].nic.mac1609_4 	SNIRLostPackets 	3
scalar RSUScenario.node[26].nic.mac1609_4 	RXTXLostPackets 	0
scalar RSUScenario.node[26].nic.mac1609_4 	TotalLostPackets 	3
scalar RSUScenario.node[26].nic.mac1609_4 	DroppedPacketsInMac 	0
scalar RSUScenario.node[26].nic.mac1609_4 	TooLittleTime 	0
scalar RSUScenario.node[26].nic.mac1609_4 	TimesIntoBackoff 	1287
scalar RSUScenario.node[26].nic.mac1609_4 	SlotsBackoff 	1987
scalar RSUScenario.node[26].nic.mac1609_4 	NumInternalContention 	0
scalar RSUScenario.node[26].nic.mac1609_4 	totalBusyTime 	6.511806
scalar RSUScenario.node[26].nic.mac1609_4 	throughputMetricMac:last 	142.7669498569
attr source  throughputSignalMac
attr title  "throughputMetricMac, last"
scalar RSUScenario.node[26].nic.mac1609_4 	throughputMetricMac:count 	27774
attr source  throughputSignalMac
attr title  "throughputMetricMac, count"
scalar RSUScenario.node[26].nic.mac1609_4 	throughputMetricMac:sum 	2725558.6137649
attr source  throughputSignalMac
attr title  "throughputMetricMac, sum"
scalar RSUScenario.node[26].nic.mac1609_4 	throughputMetricMac:mean 	98.133456245586
attr source  throughputSignalMac
attr title  "throughputMetricMac, mean"
scalar RSUScenario.node[26].veinsmobility 	startTime 	66.1
scalar RSUScenario.node[26].veinsmobility 	totalTime 	128.4
scalar RSUScenario.node[26].veinsmobility 	stopTime 	194.6
scalar RSUScenario.node[26].veinsmobility 	minSpeed 	0.0060319371217736
scalar RSUScenario.node[26].veinsmobility 	maxSpeed 	31.289939378768
scalar RSUScenario.node[26].veinsmobility 	totalDistance 	3273.8147320714
scalar RSUScenario.node[26].veinsmobility 	totalCO2Emission 	718.26840112476
scalar RSUScenario.node[24].nic.phy80211p 	busyTime 	0.047941549601743
scalar RSUScenario.node[24].nic.mac1609_4 	throughputMetricMac 	149.13636187485
scalar RSUScenario.node[24].nic.mac1609_4 	throughputMbps 	0.15751739137735
scalar RSUScenario.node[24].nic.mac1609_4 	throughputControlMbps 	0
scalar RSUScenario.node[24].nic.mac1609_4 	receivedFramesLowerMsg 	29550
scalar RSUScenario.node[24].nic.mac1609_4 	receivedBitsLowerPackets 	0
scalar RSUScenario.node[24].nic.mac1609_4 	receivedBitsLoserWsm 	0
scalar RSUScenario.node[24].nic.mac1609_4 	packetsNotForMe 	0
scalar RSUScenario.node[24].nic.mac1609_4 	receivedTotalBits 	31210624
scalar RSUScenario.node[24].nic.mac1609_4 	collisionsPktNonDecoded 	0
scalar RSUScenario.node[24].nic.mac1609_4 	ReceivedUnicastPackets 	0
scalar RSUScenario.node[24].nic.mac1609_4 	ReceivedBroadcasts 	29550
scalar RSUScenario.node[24].nic.mac1609_4 	SentPackets 	1382
scalar RSUScenario.node[24].nic.mac1609_4 	SNIRLostPackets 	2
scalar RSUScenario.node[24].nic.mac1609_4 	RXTXLostPackets 	1
scalar RSUScenario.node[24].nic.mac1609_4 	TotalLostPackets 	3
scalar RSUScenario.node[24].nic.mac1609_4 	DroppedPacketsInMac 	0
scalar RSUScenario.node[24].nic.mac1609_4 	TooLittleTime 	0
scalar RSUScenario.node[24].nic.mac1609_4 	TimesIntoBackoff 	1382
scalar RSUScenario.node[24].nic.mac1609_4 	SlotsBackoff 	2135
scalar RSUScenario.node[24].nic.mac1609_4 	NumInternalContention 	0
scalar RSUScenario.node[24].nic.mac1609_4 	totalBusyTime 	6.93123
scalar RSUScenario.node[24].nic.mac1609_4 	throughputMetricMac:last 	149.13636187485
attr source  throughputSignalMac
attr title  "throughputMetricMac, last"
scalar RSUScenario.node[24].nic.mac1609_4 	throughputMetricMac:count 	29550
attr source  throughputSignalMac
attr title  "throughputMetricMac, count"
scalar RSUScenario.node[24].nic.mac1609_4 	throughputMetricMac:sum 	3090927.9634521
attr source  throughputSignalMac
attr title  "throughputMetricMac, sum"
scalar RSUScenario.node[24].nic.mac1609_4 	throughputMetricMac:mean 	104.59993108129
attr source  throughputSignalMac
attr title  "throughputMetricMac, mean"
scalar RSUScenario.node[24].veinsmobility 	startTime 	60.1
scalar RSUScenario.node[24].veinsmobility 	totalTime 	138
scalar RSUScenario.node[24].veinsmobility 	stopTime 	198.2
scalar RSUScenario.node[24].veinsmobility 	minSpeed 	3.0815660065447e-06
scalar RSUScenario.node[24].veinsmobility 	maxSpeed 	31.289950681196
scalar RSUScenario.node[24].veinsmobility 	totalDistance 	3275.0866412388
scalar RSUScenario.node[24].veinsmobility 	totalCO2Emission 	731.56383206252
scalar RSUScenario.node[20].nic.phy80211p 	busyTime 	0.046639095744688
scalar RSUScenario.node[20].nic.mac1609_4 	throughputMetricMac 	157.76493679287
scalar RSUScenario.node[20].nic.mac1609_4 	throughputMbps 	0.16662912205668
scalar RSUScenario.node[20].nic.mac1609_4 	throughputControlMbps 	0
scalar RSUScenario.node[20].nic.mac1609_4 	receivedFramesLowerMsg 	31307
scalar RSUScenario.node[20].nic.mac1609_4 	receivedBitsLowerPackets 	0
scalar RSUScenario.node[20].nic.mac1609_4 	receivedBitsLoserWsm 	0
scalar RSUScenario.node[20].nic.mac1609_4 	packetsNotForMe 	0
scalar RSUScenario.node[20].nic.mac1609_4 	receivedTotalBits 	33066016
scalar RSUScenario.node[20].nic.mac1609_4 	collisionsPktNonDecoded 	0
scalar RSUScenario.node[20].nic.mac1609_4 	ReceivedUnicastPackets 	0
scalar RSUScenario.node[20].nic.mac1609_4 	ReceivedBroadcasts 	31307
scalar RSUScenario.node[20].nic.mac1609_4 	SentPackets 	1505
scalar RSUScenario.node[20].nic.mac1609_4 	SNIRLostPackets 	3
scalar RSUScenario.node[20].nic.mac1609_4 	RXTXLostPackets 	0
scalar RSUScenario.node[20].nic.mac1609_4 	TotalLostPackets 	3
scalar RSUScenario.node[20].nic.mac1609_4 	DroppedPacketsInMac 	0
scalar RSUScenario.node[20].nic.mac1609_4 	TooLittleTime 	0
scalar RSUScenario.node[20].nic.mac1609_4 	TimesIntoBackoff 	1505
scalar RSUScenario.node[20].nic.mac1609_4 	SlotsBackoff 	2208
scalar RSUScenario.node[20].nic.mac1609_4 	NumInternalContention 	0
scalar RSUScenario.node[20].nic.mac1609_4 	totalBusyTime 	7.352473
scalar RSUScenario.node[20].nic.mac1609_4 	throughputMetricMac:last 	157.76493679287
attr source  throughputSignalMac
attr title  "throughputMetricMac, last"
scalar RSUScenario.node[20].nic.mac1609_4 	throughputMetricMac:count 	31307
attr source  throughputSignalMac
attr title  "throughputMetricMac, count"
scalar RSUScenario.node[20].nic.mac1609_4 	throughputMetricMac:sum 	3600662.9236875
attr source  throughputSignalMac
attr title  "throughputMetricMac, sum"
scalar RSUScenario.node[20].nic.mac1609_4 	throughputMetricMac:mean 	115.01143270475
attr source  throughputSignalMac
attr title  "throughputMetricMac, mean"
scalar RSUScenario.node[20].veinsmobility 	startTime 	48.1
scalar RSUScenario.node[20].veinsmobility 	totalTime 	150.3
scalar RSUScenario.node[20].veinsmobility 	stopTime 	198.5
scalar RSUScenario.node[20].veinsmobility 	minSpeed 	0
scalar RSUScenario.node[20].veinsmobility 	maxSpeed 	31.289872276494
scalar RSUScenario.node[20].veinsmobility 	totalDistance 	3268.0560061512
scalar RSUScenario.node[20].veinsmobility 	totalCO2Emission 	747.50124527639
scalar RSUScenario.node[29].nic.phy80211p 	busyTime 	0.047061882542236
scalar RSUScenario.node[29].nic.mac1609_4 	throughputMetricMac 	130.99174474515
scalar RSUScenario.node[29].nic.mac1609_4 	throughputMbps 	0.13834076689511
scalar RSUScenario.node[29].nic.mac1609_4 	throughputControlMbps 	0
scalar RSUScenario.node[29].nic.mac1609_4 	receivedFramesLowerMsg 	26112
scalar RSUScenario.node[29].nic.mac1609_4 	receivedBitsLowerPackets 	0
scalar RSUScenario.node[29].nic.mac1609_4 	receivedBitsLoserWsm 	0
scalar RSUScenario.node[29].nic.mac1609_4 	packetsNotForMe 	0
scalar RSUScenario.node[29].nic.mac1609_4 	receivedTotalBits 	27576960
scalar RSUScenario.node[29].nic.mac1609_4 	collisionsPktNonDecoded 	0
scalar RSUScenario.node[29].nic.mac1609_4 	ReceivedUnicastPackets 	0
scalar RSUScenario.node[29].nic.mac1609_4 	ReceivedBroadcasts 	26112
scalar RSUScenario.node[29].nic.mac1609_4 	SentPackets 	1244
scalar RSUScenario.node[29].nic.mac1609_4 	SNIRLostPackets 	1
scalar RSUScenario.node[29].nic.mac1609_4 	RXTXLostPackets 	0
scalar RSUScenario.node[29].nic.mac1609_4 	TotalLostPackets 	1
scalar RSUScenario.node[29].nic.mac1609_4 	DroppedPacketsInMac 	0
scalar RSUScenario.node[29].nic.mac1609_4 	TooLittleTime 	0
scalar RSUScenario.node[29].nic.mac1609_4 	TimesIntoBackoff 	1245
scalar RSUScenario.node[29].nic.mac1609_4 	SlotsBackoff 	1925
scalar RSUScenario.node[29].nic.mac1609_4 	NumInternalContention 	0
scalar RSUScenario.node[29].nic.mac1609_4 	totalBusyTime 	6.129508
scalar RSUScenario.node[29].nic.mac1609_4 	throughputMetricMac:last 	130.99174474515
attr source  throughputSignalMac
attr title  "throughputMetricMac, last"
scalar RSUScenario.node[29].nic.mac1609_4 	throughputMetricMac:count 	26112
attr source  throughputSignalMac
attr title  "throughputMetricMac, count"
scalar RSUScenario.node[29].nic.mac1609_4 	throughputMetricMac:sum 	2304675.2377281
attr source  throughputSignalMac
attr title  "throughputMetricMac, sum"
scalar RSUScenario.node[29].nic.mac1609_4 	throughputMetricMac:mean 	88.261153405643
attr source  throughputSignalMac
attr title  "throughputMetricMac, mean"
scalar RSUScenario.node[29].veinsmobility 	startTime 	75.1
scalar RSUScenario.node[29].veinsmobility 	totalTime 	124.2
scalar RSUScenario.node[29].veinsmobility 	stopTime 	199.4
scalar RSUScenario.node[29].veinsmobility 	minSpeed 	0.25505252936669
scalar RSUScenario.node[29].veinsmobility 	maxSpeed 	31.289650448374
scalar RSUScenario.node[29].veinsmobility 	totalDistance 	3272.7873925572
scalar RSUScenario.node[29].veinsmobility 	totalCO2Emission 	719.5998266053
scalar RSUScenario.node[28].nic.phy80211p 	busyTime 	0.046989381362569
scalar RSUScenario.node[28].nic.mac1609_4 	throughputMetricMac 	134.10378785644
scalar RSUScenario.node[28].nic.mac1609_4 	throughputMbps 	0.14162705741609
scalar RSUScenario.node[28].nic.mac1609_4 	throughputControlMbps 	0
scalar RSUScenario.node[28].nic.mac1609_4 	receivedFramesLowerMsg 	26786
scalar RSUScenario.node[28].nic.mac1609_4 	receivedBitsLowerPackets 	0
scalar RSUScenario.node[28].nic.mac1609_4 	receivedBitsLoserWsm 	0
scalar RSUScenario.node[28].nic.mac1609_4 	packetsNotForMe 	0
scalar RSUScenario.node[28].nic.mac1609_4 	receivedTotalBits 	28288704
scalar RSUScenario.node[28].nic.mac1609_4 	collisionsPktNonDecoded 	0
scalar RSUScenario.node[28].nic.mac1609_4 	ReceivedUnicastPackets 	0
scalar RSUScenario.node[28].nic.mac1609_4 	ReceivedBroadcasts 	26786
scalar RSUScenario.node[28].nic.mac1609_4 	SentPackets 	1278
scalar RSUScenario.node[28].nic.mac1609_4 	SNIRLostPackets 	0
scalar RSUScenario.node[28].nic.mac1609_4 	RXTXLostPackets 	1
scalar RSUScenario.node[28].nic.mac1609_4 	TotalLostPackets 	1
scalar RSUScenario.node[28].nic.mac1609_4 	DroppedPacketsInMac 	0
scalar RSUScenario.node[28].nic.mac1609_4 	TooLittleTime 	0
scalar RSUScenario.node[28].nic.mac1609_4 	TimesIntoBackoff 	1278
scalar RSUScenario.node[28].nic.mac1609_4 	SlotsBackoff 	1878
scalar RSUScenario.node[28].nic.mac1609_4 	NumInternalContention 	0
[...]
scalar RSUScenario.node[94].nic.mac1609_4 	SentPackets 	1387
scalar RSUScenario.node[94].nic.mac1609_4 	SNIRLostPackets 	261
scalar RSUScenario.node[94].nic.mac1609_4 	RXTXLostPackets 	0
scalar RSUScenario.node[94].nic.mac1609_4 	TotalLostPackets 	261
scalar RSUScenario.node[94].nic.mac1609_4 	DroppedPacketsInMac 	0
scalar RSUScenario.node[94].nic.mac1609_4 	TooLittleTime 	0
scalar RSUScenario.node[94].nic.mac1609_4 	TimesIntoBackoff 	1760
scalar RSUScenario.node[94].nic.mac1609_4 	SlotsBackoff 	2606
scalar RSUScenario.node[94].nic.mac1609_4 	NumInternalContention 	0
scalar RSUScenario.node[94].nic.mac1609_4 	totalBusyTime 	6.709371
scalar RSUScenario.node[94].nic.mac1609_4 	throughputMetricMac:last 	66.514254575885
attr source  throughputSignalMac
attr title  "throughputMetricMac, last"
scalar RSUScenario.node[94].nic.mac1609_4 	throughputMetricMac:count 	28458
attr source  throughputSignalMac
attr title  "throughputMetricMac, count"
scalar RSUScenario.node[94].nic.mac1609_4 	throughputMetricMac:sum 	1072784.8772503
attr source  throughputSignalMac
attr title  "throughputMetricMac, sum"
scalar RSUScenario.node[94].nic.mac1609_4 	throughputMetricMac:mean 	37.697128303124
attr source  throughputSignalMac
attr title  "throughputMetricMac, mean"
scalar RSUScenario.node[94].veinsmobility 	startTime 	289.3
scalar RSUScenario.node[94].veinsmobility 	totalTime 	138.5
scalar RSUScenario.node[94].veinsmobility 	stopTime 	427.9
scalar RSUScenario.node[94].veinsmobility 	minSpeed 	2.6311913771237e-06
scalar RSUScenario.node[94].veinsmobility 	maxSpeed 	31.289978058254
scalar RSUScenario.node[94].veinsmobility 	totalDistance 	3274.13422773
scalar RSUScenario.node[94].veinsmobility 	totalCO2Emission 	741.78044450505
scalar RSUScenario.node[98].nic.phy80211p 	busyTime 	0.046123698523698
scalar RSUScenario.node[98].nic.mac1609_4 	throughputMetricMac 	61.176599761301
scalar RSUScenario.node[98].nic.mac1609_4 	throughputMbps 	0.064617128225991
scalar RSUScenario.node[98].nic.mac1609_4 	throughputControlMbps 	0
scalar RSUScenario.node[98].nic.mac1609_4 	receivedFramesLowerMsg 	26211
scalar RSUScenario.node[98].nic.mac1609_4 	receivedBitsLowerPackets 	0
scalar RSUScenario.node[98].nic.mac1609_4 	receivedBitsLoserWsm 	0
scalar RSUScenario.node[98].nic.mac1609_4 	packetsNotForMe 	0
scalar RSUScenario.node[98].nic.mac1609_4 	receivedTotalBits 	27685088
scalar RSUScenario.node[98].nic.mac1609_4 	collisionsPktNonDecoded 	0
scalar RSUScenario.node[98].nic.mac1609_4 	ReceivedUnicastPackets 	0
scalar RSUScenario.node[98].nic.mac1609_4 	ReceivedBroadcasts 	26211
scalar RSUScenario.node[98].nic.mac1609_4 	SentPackets 	1288
scalar RSUScenario.node[98].nic.mac1609_4 	SNIRLostPackets 	284
scalar RSUScenario.node[98].nic.mac1609_4 	RXTXLostPackets 	0
scalar RSUScenario.node[98].nic.mac1609_4 	TotalLostPackets 	284
scalar RSUScenario.node[98].nic.mac1609_4 	DroppedPacketsInMac 	0
scalar RSUScenario.node[98].nic.mac1609_4 	TooLittleTime 	0
scalar RSUScenario.node[98].nic.mac1609_4 	TimesIntoBackoff 	1288
scalar RSUScenario.node[98].nic.mac1609_4 	SlotsBackoff 	1894
scalar RSUScenario.node[98].nic.mac1609_4 	NumInternalContention 	0
scalar RSUScenario.node[98].nic.mac1609_4 	totalBusyTime 	6.185112
scalar RSUScenario.node[98].nic.mac1609_4 	throughputMetricMac:last 	61.176599761301
attr source  throughputSignalMac
attr title  "throughputMetricMac, last"
scalar RSUScenario.node[98].nic.mac1609_4 	throughputMetricMac:count 	26211
attr source  throughputSignalMac
attr title  "throughputMetricMac, count"
scalar RSUScenario.node[98].nic.mac1609_4 	throughputMetricMac:sum 	902061.8933919
attr source  throughputSignalMac
attr title  "throughputMetricMac, sum"
scalar RSUScenario.node[98].nic.mac1609_4 	throughputMetricMac:mean 	34.415394047991
attr source  throughputSignalMac
attr title  "throughputMetricMac, mean"
scalar RSUScenario.node[98].veinsmobility 	startTime 	299.8
scalar RSUScenario.node[98].veinsmobility 	totalTime 	128.6
scalar RSUScenario.node[98].veinsmobility 	stopTime 	428.5
scalar RSUScenario.node[98].veinsmobility 	minSpeed 	0.076093596673737
scalar RSUScenario.node[98].veinsmobility 	maxSpeed 	31.289831917014
scalar RSUScenario.node[98].veinsmobility 	totalDistance 	3270.7752376975
scalar RSUScenario.node[98].veinsmobility 	totalCO2Emission 	737.4741686019
scalar RSUScenario.node[101].nic.phy80211p 	busyTime 	0.046666732673265
scalar RSUScenario.node[101].nic.mac1609_4 	throughputMetricMac 	58.10769813017
scalar RSUScenario.node[101].nic.mac1609_4 	throughputMbps 	0.061369560514415
scalar RSUScenario.node[101].nic.mac1609_4 	throughputControlMbps 	0
scalar RSUScenario.node[101].nic.mac1609_4 	receivedFramesLowerMsg 	24931
scalar RSUScenario.node[101].nic.mac1609_4 	receivedBitsLowerPackets 	0
scalar RSUScenario.node[101].nic.mac1609_4 	receivedBitsLoserWsm 	0
scalar RSUScenario.node[101].nic.mac1609_4 	packetsNotForMe 	0
scalar RSUScenario.node[101].nic.mac1609_4 	receivedTotalBits 	26330496
scalar RSUScenario.node[101].nic.mac1609_4 	collisionsPktNonDecoded 	0
scalar RSUScenario.node[101].nic.mac1609_4 	ReceivedUnicastPackets 	0
scalar RSUScenario.node[101].nic.mac1609_4 	ReceivedBroadcasts 	24931
scalar RSUScenario.node[101].nic.mac1609_4 	SentPackets 	1213
scalar RSUScenario.node[101].nic.mac1609_4 	SNIRLostPackets 	316
scalar RSUScenario.node[101].nic.mac1609_4 	RXTXLostPackets 	0
scalar RSUScenario.node[101].nic.mac1609_4 	TotalLostPackets 	316
scalar RSUScenario.node[101].nic.mac1609_4 	DroppedPacketsInMac 	0
scalar RSUScenario.node[101].nic.mac1609_4 	TooLittleTime 	0
scalar RSUScenario.node[101].nic.mac1609_4 	TimesIntoBackoff 	1214
scalar RSUScenario.node[101].nic.mac1609_4 	SlotsBackoff 	1825
scalar RSUScenario.node[101].nic.mac1609_4 	NumInternalContention 	0
scalar RSUScenario.node[101].nic.mac1609_4 	totalBusyTime 	5.882789
scalar RSUScenario.node[101].nic.mac1609_4 	throughputMetricMac:last 	58.10769813017
attr source  throughputSignalMac
attr title  "throughputMetricMac, last"
scalar RSUScenario.node[101].nic.mac1609_4 	throughputMetricMac:count 	24931
attr source  throughputSignalMac
attr title  "throughputMetricMac, count"
scalar RSUScenario.node[101].nic.mac1609_4 	throughputMetricMac:sum 	810263.75046163
attr source  throughputSignalMac
attr title  "throughputMetricMac, sum"
scalar RSUScenario.node[101].nic.mac1609_4 	throughputMetricMac:mean 	32.500250710426
attr source  throughputSignalMac
attr title  "throughputMetricMac, mean"
scalar RSUScenario.node[101].veinsmobility 	startTime 	307.9
scalar RSUScenario.node[101].veinsmobility 	totalTime 	121.1
scalar RSUScenario.node[101].veinsmobility 	stopTime 	429.1
scalar RSUScenario.node[101].veinsmobility 	minSpeed 	0.25485498425737
scalar RSUScenario.node[101].veinsmobility 	maxSpeed 	31.289858906309
scalar RSUScenario.node[101].veinsmobility 	totalDistance 	3272.0629665846
scalar RSUScenario.node[101].veinsmobility 	totalCO2Emission 	722.54922260772
scalar RSUScenario.node[103].nic.phy80211p 	busyTime 	0.048698224066389
scalar RSUScenario.node[103].nic.mac1609_4 	throughputMetricMac 	58.097527237758
scalar RSUScenario.node[103].nic.mac1609_4 	throughputMbps 	0.06135873694481
scalar RSUScenario.node[103].nic.mac1609_4 	throughputControlMbps 	0
scalar RSUScenario.node[103].nic.mac1609_4 	receivedFramesLowerMsg 	25194
scalar RSUScenario.node[103].nic.mac1609_4 	receivedBitsLowerPackets 	0
scalar RSUScenario.node[103].nic.mac1609_4 	receivedBitsLoserWsm 	0
scalar RSUScenario.node[103].nic.mac1609_4 	packetsNotForMe 	0
scalar RSUScenario.node[103].nic.mac1609_4 	receivedTotalBits 	26608224
scalar RSUScenario.node[103].nic.mac1609_4 	collisionsPktNonDecoded 	0
scalar RSUScenario.node[103].nic.mac1609_4 	ReceivedUnicastPackets 	0
scalar RSUScenario.node[103].nic.mac1609_4 	ReceivedBroadcasts 	25194
scalar RSUScenario.node[103].nic.mac1609_4 	SentPackets 	1206
scalar RSUScenario.node[103].nic.mac1609_4 	SNIRLostPackets 	1000
scalar RSUScenario.node[103].nic.mac1609_4 	RXTXLostPackets 	48
scalar RSUScenario.node[103].nic.mac1609_4 	TotalLostPackets 	1048
scalar RSUScenario.node[103].nic.mac1609_4 	DroppedPacketsInMac 	0
scalar RSUScenario.node[103].nic.mac1609_4 	TooLittleTime 	0
scalar RSUScenario.node[103].nic.mac1609_4 	TimesIntoBackoff 	1398
scalar RSUScenario.node[103].nic.mac1609_4 	SlotsBackoff 	2077
scalar RSUScenario.node[103].nic.mac1609_4 	NumInternalContention 	0
scalar RSUScenario.node[103].nic.mac1609_4 	totalBusyTime 	5.952222
scalar RSUScenario.node[103].nic.mac1609_4 	throughputMetricMac:last 	58.097527237758
attr source  throughputSignalMac
attr title  "throughputMetricMac, last"
scalar RSUScenario.node[103].nic.mac1609_4 	throughputMetricMac:count 	25194
attr source  throughputSignalMac
attr title  "throughputMetricMac, count"
scalar RSUScenario.node[103].nic.mac1609_4 	throughputMetricMac:sum 	818068.74173897
attr source  throughputSignalMac
attr title  "throughputMetricMac, sum"
scalar RSUScenario.node[103].nic.mac1609_4 	throughputMetricMac:mean 	32.470776444351
attr source  throughputSignalMac
attr title  "throughputMetricMac, mean"
scalar RSUScenario.node[103].veinsmobility 	startTime 	313.2
scalar RSUScenario.node[103].veinsmobility 	totalTime 	120.4
scalar RSUScenario.node[103].veinsmobility 	stopTime 	433.7
scalar RSUScenario.node[103].veinsmobility 	minSpeed 	0.24726203277078
scalar RSUScenario.node[103].veinsmobility 	maxSpeed 	31.289808151985
scalar RSUScenario.node[103].veinsmobility 	totalDistance 	3273.6416065159
scalar RSUScenario.node[103].veinsmobility 	totalCO2Emission 	707.86733269807
scalar RSUScenario.node[102].nic.phy80211p 	busyTime 	0.049689411764709
scalar RSUScenario.node[102].nic.mac1609_4 	throughputMetricMac 	60.184635953802
scalar RSUScenario.node[102].nic.mac1609_4 	throughputMbps 	0.063562645889467
scalar RSUScenario.node[102].nic.mac1609_4 	throughputControlMbps 	0
scalar RSUScenario.node[102].nic.mac1609_4 	receivedFramesLowerMsg 	26364
scalar RSUScenario.node[102].nic.mac1609_4 	receivedBitsLowerPackets 	0
scalar RSUScenario.node[102].nic.mac1609_4 	receivedBitsLoserWsm 	0
scalar RSUScenario.node[102].nic.mac1609_4 	packetsNotForMe 	0
scalar RSUScenario.node[102].nic.mac1609_4 	receivedTotalBits 	27843744
scalar RSUScenario.node[102].nic.mac1609_4 	collisionsPktNonDecoded 	0
scalar RSUScenario.node[102].nic.mac1609_4 	ReceivedUnicastPackets 	0
scalar RSUScenario.node[102].nic.mac1609_4 	ReceivedBroadcasts 	26364
scalar RSUScenario.node[102].nic.mac1609_4 	SentPackets 	1276
scalar RSUScenario.node[102].nic.mac1609_4 	SNIRLostPackets 	1916
scalar RSUScenario.node[102].nic.mac1609_4 	RXTXLostPackets 	0
scalar RSUScenario.node[102].nic.mac1609_4 	TotalLostPackets 	1916
scalar RSUScenario.node[102].nic.mac1609_4 	DroppedPacketsInMac 	0
scalar RSUScenario.node[102].nic.mac1609_4 	TooLittleTime 	0
scalar RSUScenario.node[102].nic.mac1609_4 	TimesIntoBackoff 	1276
scalar RSUScenario.node[102].nic.mac1609_4 	SlotsBackoff 	1949
scalar RSUScenario.node[102].nic.mac1609_4 	NumInternalContention 	0
scalar RSUScenario.node[102].nic.mac1609_4 	totalBusyTime 	6.388644
scalar RSUScenario.node[102].nic.mac1609_4 	throughputMetricMac:last 	60.184635953802
attr source  throughputSignalMac
attr title  "throughputMetricMac, last"
scalar RSUScenario.node[102].nic.mac1609_4 	throughputMetricMac:count 	26364
attr source  throughputSignalMac
attr title  "throughputMetricMac, count"
scalar RSUScenario.node[102].nic.mac1609_4 	throughputMetricMac:sum 	892272.8405616
attr source  throughputSignalMac
attr title  "throughputMetricMac, sum"
scalar RSUScenario.node[102].nic.mac1609_4 	throughputMetricMac:mean 	33.844365064543
attr source  throughputSignalMac
attr title  "throughputMetricMac, mean"
scalar RSUScenario.node[102].veinsmobility 	startTime 	310.6
scalar RSUScenario.node[102].veinsmobility 	totalTime 	127.4
scalar RSUScenario.node[102].veinsmobility 	stopTime 	438.1
scalar RSUScenario.node[102].veinsmobility 	minSpeed 	0.0062285722334077
scalar RSUScenario.node[102].veinsmobility 	maxSpeed 	31.289480266818
scalar RSUScenario.node[102].veinsmobility 	totalDistance 	3274.6709582811
scalar RSUScenario.node[102].veinsmobility 	totalCO2Emission 	721.88390428513
scalar RSUScenario.node[105].nic.phy80211p 	busyTime 	0.04890426446281
scalar RSUScenario.node[105].nic.mac1609_4 	throughputMetricMac 	54.812627634716
scalar RSUScenario.node[105].nic.mac1609_4 	throughputMbps 	0.057889778929033
scalar RSUScenario.node[105].nic.mac1609_4 	throughputControlMbps 	0
scalar RSUScenario.node[105].nic.mac1609_4 	receivedFramesLowerMsg 	24093
scalar RSUScenario.node[105].nic.mac1609_4 	receivedBitsLowerPackets 	0
scalar RSUScenario.node[105].nic.mac1609_4 	receivedBitsLoserWsm 	0
scalar RSUScenario.node[105].nic.mac1609_4 	packetsNotForMe 	0
scalar RSUScenario.node[105].nic.mac1609_4 	receivedTotalBits 	25445568
scalar RSUScenario.node[105].nic.mac1609_4 	collisionsPktNonDecoded 	0
scalar RSUScenario.node[105].nic.mac1609_4 	ReceivedUnicastPackets 	0
scalar RSUScenario.node[105].nic.mac1609_4 	ReceivedBroadcasts 	24093
scalar RSUScenario.node[105].nic.mac1609_4 	SentPackets 	1211
scalar RSUScenario.node[105].nic.mac1609_4 	SNIRLostPackets 	2321
scalar RSUScenario.node[105].nic.mac1609_4 	RXTXLostPackets 	0
scalar RSUScenario.node[105].nic.mac1609_4 	TotalLostPackets 	2321
scalar RSUScenario.node[105].nic.mac1609_4 	DroppedPacketsInMac 	0
scalar RSUScenario.node[105].nic.mac1609_4 	TooLittleTime 	0
scalar RSUScenario.node[105].nic.mac1609_4 	TimesIntoBackoff 	1211
scalar RSUScenario.node[105].nic.mac1609_4 	SlotsBackoff 	1751
scalar RSUScenario.node[105].nic.mac1609_4 	NumInternalContention 	0
scalar RSUScenario.node[105].nic.mac1609_4 	totalBusyTime 	5.935203
scalar RSUScenario.node[105].nic.mac1609_4 	throughputMetricMac:last 	54.812627634716
attr source  throughputSignalMac
attr title  "throughputMetricMac, last"
scalar RSUScenario.node[105].nic.mac1609_4 	throughputMetricMac:count 	24093
attr source  throughputSignalMac
attr title  "throughputMetricMac, count"
scalar RSUScenario.node[105].nic.mac1609_4 	throughputMetricMac:sum 	739001.78778608
attr source  throughputSignalMac
attr title  "throughputMetricMac, sum"
scalar RSUScenario.node[105].nic.mac1609_4 	throughputMetricMac:mean 	30.672883733287
attr source  throughputSignalMac
attr title  "throughputMetricMac, mean"
scalar RSUScenario.node[105].veinsmobility 	startTime 	318.6
scalar RSUScenario.node[105].veinsmobility 	totalTime 	120.9
scalar RSUScenario.node[105].veinsmobility 	stopTime 	439.6
scalar RSUScenario.node[105].veinsmobility 	minSpeed 	0.25626810818096
scalar RSUScenario.node[105].veinsmobility 	maxSpeed 	31.289964022022
scalar RSUScenario.node[105].veinsmobility 	totalDistance 	3275.9985618711
scalar RSUScenario.node[105].veinsmobility 	totalCO2Emission 	710.1096291089
scalar RSUScenario.node[107].nic.phy80211p 	busyTime 	0.051475894039737
scalar RSUScenario.node[107].nic.mac1609_4 	throughputMetricMac 	52.306073304231
scalar RSUScenario.node[107].nic.mac1609_4 	throughputMbps 	0.055243273645151
scalar RSUScenario.node[107].nic.mac1609_4 	throughputControlMbps 	0
scalar RSUScenario.node[107].nic.mac1609_4 	receivedFramesLowerMsg 	23258
scalar RSUScenario.node[107].nic.mac1609_4 	receivedBitsLowerPackets 	0
scalar RSUScenario.node[107].nic.mac1609_4 	receivedBitsLoserWsm 	0
scalar RSUScenario.node[107].nic.mac1609_4 	packetsNotForMe 	0
scalar RSUScenario.node[107].nic.mac1609_4 	receivedTotalBits 	24564032
scalar RSUScenario.node[107].nic.mac1609_4 	collisionsPktNonDecoded 	0
scalar RSUScenario.node[107].nic.mac1609_4 	ReceivedUnicastPackets 	0
scalar RSUScenario.node[107].nic.mac1609_4 	ReceivedBroadcasts 	23258
scalar RSUScenario.node[107].nic.mac1609_4 	SentPackets 	1209
scalar RSUScenario.node[107].nic.mac1609_4 	SNIRLostPackets 	4499
scalar RSUScenario.node[107].nic.mac1609_4 	RXTXLostPackets 	0
scalar RSUScenario.node[107].nic.mac1609_4 	TotalLostPackets 	4499
scalar RSUScenario.node[107].nic.mac1609_4 	DroppedPacketsInMac 	0
scalar RSUScenario.node[107].nic.mac1609_4 	TooLittleTime 	0
scalar RSUScenario.node[107].nic.mac1609_4 	TimesIntoBackoff 	1210
scalar RSUScenario.node[107].nic.mac1609_4 	SlotsBackoff 	1820
scalar RSUScenario.node[107].nic.mac1609_4 	NumInternalContention 	0
scalar RSUScenario.node[107].nic.mac1609_4 	totalBusyTime 	5.994601
scalar RSUScenario.node[107].nic.mac1609_4 	throughputMetricMac:last 	52.306073304231
attr source  throughputSignalMac
attr title  "throughputMetricMac, last"
scalar RSUScenario.node[107].nic.mac1609_4 	throughputMetricMac:count 	23258
attr source  throughputSignalMac
attr title  "throughputMetricMac, count"
scalar RSUScenario.node[107].nic.mac1609_4 	throughputMetricMac:sum 	680557.12223371
attr source  throughputSignalMac
attr title  "throughputMetricMac, sum"
scalar RSUScenario.node[107].nic.mac1609_4 	throughputMetricMac:mean 	29.261205702714
attr source  throughputSignalMac
attr title  "throughputMetricMac, mean"
scalar RSUScenario.node[107].veinsmobility 	startTime 	323.9
scalar RSUScenario.node[107].veinsmobility 	totalTime 	120.7
scalar RSUScenario.node[107].veinsmobility 	stopTime 	444.7
scalar RSUScenario.node[107].veinsmobility 	minSpeed 	0.25161011300678
scalar RSUScenario.node[107].veinsmobility 	maxSpeed 	31.28986613618
scalar RSUScenario.node[107].veinsmobility 	totalDistance 	3275.5391769086
scalar RSUScenario.node[107].veinsmobility 	totalCO2Emission 	705.84765461281
scalar RSUScenario.node[106].nic.phy80211p 	busyTime 	0.052090195465213
scalar RSUScenario.node[106].nic.mac1609_4 	throughputMetricMac 	55.467964386071
scalar RSUScenario.node[106].nic.mac1609_4 	throughputMbps 	0.058583149307367
scalar RSUScenario.node[106].nic.mac1609_4 	throughputControlMbps 	0
scalar RSUScenario.node[106].nic.mac1609_4 	receivedFramesLowerMsg 	24908
scalar RSUScenario.node[106].nic.mac1609_4 	receivedBitsLowerPackets 	0
scalar RSUScenario.node[106].nic.mac1609_4 	receivedBitsLoserWsm 	0
scalar RSUScenario.node[106].nic.mac1609_4 	packetsNotForMe 	0
scalar RSUScenario.node[106].nic.mac1609_4 	receivedTotalBits 	26306880
scalar RSUScenario.node[106].nic.mac1609_4 	collisionsPktNonDecoded 	0
scalar RSUScenario.node[106].nic.mac1609_4 	ReceivedUnicastPackets 	0
scalar RSUScenario.node[106].nic.mac1609_4 	ReceivedBroadcasts 	24908
scalar RSUScenario.node[106].nic.mac1609_4 	SentPackets 	1280
scalar RSUScenario.node[106].nic.mac1609_4 	SNIRLostPackets 	4831
scalar RSUScenario.node[106].nic.mac1609_4 	RXTXLostPackets 	0
scalar RSUScenario.node[106].nic.mac1609_4 	TotalLostPackets 	4831
scalar RSUScenario.node[106].nic.mac1609_4 	DroppedPacketsInMac 	0
scalar RSUScenario.node[106].nic.mac1609_4 	TooLittleTime 	0
scalar RSUScenario.node[106].nic.mac1609_4 	TimesIntoBackoff 	1281
scalar RSUScenario.node[106].nic.mac1609_4 	SlotsBackoff 	1962
scalar RSUScenario.node[106].nic.mac1609_4 	NumInternalContention 	0
scalar RSUScenario.node[106].nic.mac1609_4 	totalBusyTime 	6.444768
scalar RSUScenario.node[106].nic.mac1609_4 	throughputMetricMac:last 	55.467964386071
attr source  throughputSignalMac
attr title  "throughputMetricMac, last"
scalar RSUScenario.node[106].nic.mac1609_4 	throughputMetricMac:count 	24908
attr source  throughputSignalMac
attr title  "throughputMetricMac, count"
scalar RSUScenario.node[106].nic.mac1609_4 	throughputMetricMac:sum 	774949.44536541
attr source  throughputSignalMac
attr title  "throughputMetricMac, sum"
scalar RSUScenario.node[106].nic.mac1609_4 	throughputMetricMac:mean 	31.112471710511
attr source  throughputSignalMac
attr title  "throughputMetricMac, mean"
scalar RSUScenario.node[106].veinsmobility 	startTime 	321.2
scalar RSUScenario.node[106].veinsmobility 	totalTime 	127.8
scalar RSUScenario.node[106].veinsmobility 	stopTime 	449.1
scalar RSUScenario.node[106].veinsmobility 	minSpeed 	0.019880243555588
scalar RSUScenario.node[106].veinsmobility 	maxSpeed 	31.28979090323
scalar RSUScenario.node[106].veinsmobility 	totalDistance 	3275.3933491109
scalar RSUScenario.node[106].veinsmobility 	totalCO2Emission 	718.10676351816
