version 2
run SingleCH_Safety_B_400Bytes_P_1000Bytes_Q_1-0-20171202-19:33:03-38123
attr configname SingleCH_Safety_B_400Bytes_P_1000Bytes_Q_1
attr datetime 20171202-19:33:03
attr experiment SingleCH_Safety_B_400Bytes_P_1000Bytes_Q_1
attr inifile omnetpp.ini
attr iterationvars $0=1
attr iterationvars2 "$0=1, $repetition=0"
attr measurement $0=1
attr network RSUScenario
attr processid 38123
attr repetition 0
attr replication #0
attr resultdir results
attr runnumber 0
attr seedset 0
param **.coreDebug false
param **.debug true
param *.**.nic.mac1609_4.bitrate 6Mbps
param *.**.nic.mac1609_4.queueSize ${1,2,5}
param *.**.nic.mac1609_4.txPower 100mW
param *.**.nic.mac1609_4.useServiceChannel false
param *.**.nic.phy80211p.analogueModels "xmldoc(\"config.xml\")"
param *.**.nic.phy80211p.collectCollisionStatistics true
param *.**.nic.phy80211p.decider "xmldoc(\"config.xml\")"
param *.**.nic.phy80211p.decider.collectCollisionStats true
param *.**.nic.phy80211p.maxTXPower 100mW
param *.**.nic.phy80211p.sensitivity -89dBm
param *.**.nic.phy80211p.thermalNoise -110dBm
param *.**.nic.phy80211p.usePropagationDelay true
param *.**.nic.phy80211p.useThermalNoise true
param *.annotations.draw false
param *.connectionManager.alpha 2.0
param *.connectionManager.carrierFrequency "5.890e9 Hz"
param *.connectionManager.pMax 100mW
param *.connectionManager.sat -89dBm
param *.connectionManager.sendDirect true
param *.manager.autoShutdown true
param *.manager.host "\"localhost\""
param *.manager.launchConfig "xmldoc(\"erlangen.launchd.xml\")"
param *.manager.margin 25
param *.manager.moduleDisplayString "\"\""
param *.manager.moduleName "\"node\""
param *.manager.moduleType "\"vanets.src.CarWithMetrics\""
param *.manager.numVehicles 5
param *.manager.port 9999
param *.manager.updateInterval 0.1s
param *.metricsApplicaiton[*].appl.sendBeacons false
param *.metricsApplication.appl.beaconInterval 1s
param *.metricsApplication.appl.beaconLengthBits 3200bit
param *.metricsApplication.appl.beaconPriority 3
param *.metricsApplication.appl.dataOnSch false
param *.metricsApplication.appl.dataPriority 2
param *.metricsApplication.appl.debug false
param *.metricsApplication.appl.headerLength "256 bit"
param *.metricsApplication.appl.maxOffset 0.005s
param *.metricsApplication.appl.sendBeacons false
param *.metricsApplication.appl.sendData true
param *.metricsApplication.applType "\"TraCIDemoRSU11p\""
param *.metricsApplication.mobility.x 2000
param *.metricsApplication.mobility.y 2000
param *.metricsApplication.mobility.z 3
param *.metricsApplication[*].appl.beaconInterval 0.1s
param *.metricsApplication[*].appl.beaconPriority 3
param *.metricsApplication[*].appl.dataLengthBits 8000bit
param *.metricsApplication[*].appl.dataOnSch false
param *.metricsApplication[*].appl.sendData false
param *.node[*0].veinsmobility.accidentCount 1
param *.node[*0].veinsmobility.accidentDuration 30s
param *.node[*0].veinsmobility.accidentStart 10s
param *.node[*].appl.beaconInterval 1s
param *.node[*].appl.beaconLengthBits 3200bit
param *.node[*].appl.beaconPriority 3
param *.node[*].appl.dataLengthBits 8000bit
param *.node[*].appl.dataOnSch false
param *.node[*].appl.dataPriority 2
param *.node[*].appl.debug false
param *.node[*].appl.headerLength "256 bit"
param *.node[*].appl.maxOffset 0.005s
param *.node[*].appl.sendBeacons false
param *.node[*].appl.sendData true
param *.node[*].applType "\"TraCIDemo11p\""
param *.node[*].mobilityType "\"TraCIMobility\""
param *.node[*].mobilityType.debug true
param *.node[*].veinsmobility.x 0
param *.node[*].veinsmobility.y 0
param *.node[*].veinsmobility.z 1.895
param *.node[*].veinsmobilityType "\"org.car2x.veins.modules.mobility.traci.TraCIMobility\""
param *.node[*].veinsmobilityType.debug true
param *.obstacles.debug false
param *.playgroundSizeX 25000m
param *.playgroundSizeY 25000m
param *.playgroundSizeZ 50m
param *.rsu[*].appl.beaconInterval 1s
param *.rsu[*].appl.beaconLengthBits 3200bit
param *.rsu[*].appl.beaconPriority 3
param *.rsu[*].appl.dataLengthBits 8000bit
param *.rsu[*].appl.dataOnSch false
param *.rsu[*].appl.dataPriority 2
param *.rsu[*].appl.debug false
param *.rsu[*].appl.headerLength "256 bit"
param *.rsu[*].appl.maxOffset 0.005s
param *.rsu[*].appl.sendBeacons false
param *.rsu[*].appl.sendData true
param *.rsu[*].applType "\"TraCIDemoRSU11p\""
param *.rsu[0].mobility.x 2000
param *.rsu[0].mobility.y 2000
param *.rsu[0].mobility.z 3
param *.world.use2D false
param *.world.useTorus false

vector 6  RSUScenario.node[0].veinsmobility  posx  ETV
vector 7  RSUScenario.node[0].veinsmobility  posy  ETV
vector 8  RSUScenario.node[0].veinsmobility  speed  ETV
vector 9  RSUScenario.node[0].veinsmobility  acceleration  ETV
vector 10  RSUScenario.node[0].veinsmobility  co2emission  ETV
vector 13  RSUScenario.node[1].veinsmobility  posx  ETV
vector 14  RSUScenario.node[1].veinsmobility  posy  ETV
vector 15  RSUScenario.node[1].veinsmobility  speed  ETV
vector 16  RSUScenario.node[1].veinsmobility  acceleration  ETV
vector 17  RSUScenario.node[1].veinsmobility  co2emission  ETV
vector 20  RSUScenario.node[2].veinsmobility  posx  ETV
vector 21  RSUScenario.node[2].veinsmobility  posy  ETV
vector 22  RSUScenario.node[2].veinsmobility  speed  ETV
vector 23  RSUScenario.node[2].veinsmobility  acceleration  ETV
vector 24  RSUScenario.node[2].veinsmobility  co2emission  ETV
vector 27  RSUScenario.node[3].veinsmobility  posx  ETV
vector 28  RSUScenario.node[3].veinsmobility  posy  ETV
vector 29  RSUScenario.node[3].veinsmobility  speed  ETV
vector 30  RSUScenario.node[3].veinsmobility  acceleration  ETV
vector 31  RSUScenario.node[3].veinsmobility  co2emission  ETV
vector 34  RSUScenario.node[4].veinsmobility  posx  ETV
vector 35  RSUScenario.node[4].veinsmobility  posy  ETV
vector 36  RSUScenario.node[4].veinsmobility  speed  ETV
vector 37  RSUScenario.node[4].veinsmobility  acceleration  ETV
vector 38  RSUScenario.node[4].veinsmobility  co2emission  ETV
vector 41  RSUScenario.node[5].veinsmobility  posx  ETV
vector 42  RSUScenario.node[5].veinsmobility  posy  ETV
vector 43  RSUScenario.node[5].veinsmobility  speed  ETV
vector 44  RSUScenario.node[5].veinsmobility  acceleration  ETV
vector 45  RSUScenario.node[5].veinsmobility  co2emission  ETV
vector 48  RSUScenario.node[6].veinsmobility  posx  ETV
vector 49  RSUScenario.node[6].veinsmobility  posy  ETV
vector 50  RSUScenario.node[6].veinsmobility  speed  ETV
vector 51  RSUScenario.node[6].veinsmobility  acceleration  ETV
vector 52  RSUScenario.node[6].veinsmobility  co2emission  ETV
vector 55  RSUScenario.node[7].veinsmobility  posx  ETV
vector 56  RSUScenario.node[7].veinsmobility  posy  ETV
vector 57  RSUScenario.node[7].veinsmobility  speed  ETV
vector 58  RSUScenario.node[7].veinsmobility  acceleration  ETV
vector 59  RSUScenario.node[7].veinsmobility  co2emission  ETV
vector 62  RSUScenario.node[8].veinsmobility  posx  ETV
vector 63  RSUScenario.node[8].veinsmobility  posy  ETV
vector 64  RSUScenario.node[8].veinsmobility  speed  ETV
vector 65  RSUScenario.node[8].veinsmobility  acceleration  ETV
vector 66  RSUScenario.node[8].veinsmobility  co2emission  ETV
17	358	1.4	1.4500716958325
17	413	1.5	1.3158122491909
17	468	1.6	1.3082333668257
17	523	1.7	0.973
17	578	1.8	1.2349347762468
17	633	1.9	1.1664823434091
17	690	2	0.973
17	745	2.1	1.3749405508883
17	800	2.2	1.1732278842916
17	855	2.3	1.1927164652387
17	910	2.4	0.973
17	965	2.5	1.1867800584743
17	1020	2.6	1.153879427886
17	1075	2.7	1.149924735861
17	1130	2.8	1.2145896921385
17	1185	2.9	1.2523658534272
17	1242	3	0.973
17	1297	3.1	1.3298750264086
17	1352	3.2	0.973
17	1407	3.3	1.2913598304254
17	1462	3.4	0.973
17	1517	3.5	1.2711989456833
17	1572	3.6	1.2002417846836
17	1627	3.7	1.2107816218668
17	1682	3.8	0.973
17	1737	3.9	1.2479537197684
17	1794	4	1.1499646648471
17	1849	4.1	1.3048264029855
17	1904	4.2	0.973
17	1959	4.3	1.1764232331442
17	2014	4.4	1.1740686201484
17	2069	4.5	0.973
17	2124	4.6	1.2337474040417
17	2179	4.7	1.2496035428317
17	2234	4.8	1.1581411847589
17	2289	4.9	0.973
17	2346	5	1.324759762243
17	2401	5.1	0.973
17	2456	5.2	1.1741071282569
17	2511	5.3	1.2823941067515
17	2566	5.4	1.1956229671801
17	2621	5.5	0.973
17	2676	5.6	1.16499685185
17	2731	5.7	0.973
17	2786	5.8	1.2056802326076
17	2841	5.9	0.973
17	2898	6	1.3818743243363
17	2953	6.1	1.1519667787344
17	3008	6.2	1.1876688100205
17	3063	6.3	0.973
17	3118	6.4	1.268148488022
17	3173	6.5	0.973
17	3228	6.6	1.2273657027161
17	3283	6.7	1.1964151137758
17	3338	6.8	1.1881069148962
17	3438	6.9	0.973
17	3540	7	1.1473539283047
17	3640	7.1	1.2694580305724
17	3740	7.2	1.2596995234408
17	3840	7.3	0.973
17	3940	7.4	1.1443230387851
17	4040	7.5	1.2899078059348
17	4140	7.6	1.2727768370142
17	4240	7.7	0.973
17	4397	7.8	1.2433891062335
17	4554	7.9	1.194809087879
17	4713	8	0.973
17	4870	8.1	0.973
17	5027	8.2	1.2550788988328
17	5184	8.3	1.1882595639177
17	5341	8.4	0.973
17	5498	8.5	1.3237949535935
17	5655	8.6	0.973
17	5812	8.7	1.1746117759139
17	5969	8.8	1.2769544486063
17	6126	8.9	1.2303745370782
17	6354	9	1.1810199865234
17	6580	9.1	0.973
17	6806	9.2	1.1700102277427
17	7032	9.3	1.2168233249008
17	7258	9.4	1.1507384443176
17	7484	9.5	1.1705221178006
17	7710	9.6	1.2413413161946
17	7936	9.7	0.973
17	8162	9.8	1.1736323217168
17	8388	9.9	0.973
17	8616	10	1.25112478525
17	8843	10.1	1.2488540055033
17	9069	10.2	1.1572794855342
17	9295	10.3	1.2340420562102
17	9521	10.4	0.973
17	9747	10.5	0.973
17	9973	10.6	1.2757896680911
17	10199	10.7	0.973
17	10425	10.8	1.1525467590982
17	10651	10.9	0.973
17	10879	11	1.1918442692869
17	11105	11.1	1.333164329934
17	11331	11.2	0.973
17	11557	11.3	1.2227339133615
17	11783	11.4	0.973
17	12009	11.5	1.2331731770866
17	12235	11.6	1.3410286754132
17	12461	11.7	0.973
17	12687	11.8	1.1807993514699
17	12913	11.9	1.2086507850973
17	13141	12	0.973
17	13367	12.1	0.973
17	13593	12.2	1.2068526392871
17	13819	12.3	1.221888674175
17	14045	12.4	1.2474299271569
17	14271	12.5	0.973
17	14497	12.6	1.1834317984629
17	14723	12.7	1.2613720629836
17	14949	12.8	0.973
17	15175	12.9	1.2217682729002
17	15403	13	0.973
17	15629	13.1	1.2010739740701
17	15855	13.2	0.973
17	16081	13.3	1.2667886055304
17	16307	13.4	0.973
17	16533	13.5	1.1866031454692
17	16759	13.6	1.2761641344691
17	16985	13.7	0.973
17	17211	13.8	1.1446404980802
17	17437	13.9	1.2327595325957
17	17665	14	0.973
17	17891	14.1	1.2832958812819
17	18117	14.2	0.973
17	18343	14.3	1.2574799584294
17	18569	14.4	1.2608039029561
17	18795	14.5	0.973
17	19021	14.6	0.973
17	19247	14.7	1.241206640006
17	19473	14.8	0.973
17	19699	14.9	1.2966661091294
17	19927	15	1.1903256255355
17	20153	15.1	0.973
17	20379	15.2	1.3024777146467
17	20605	15.3	0.973
17	20831	15.4	1.2444504509963
17	21057	15.5	1.240013451319
17	21283	15.6	0.973
17	21509	15.7	1.2309086826024
17	21735	15.8	1.1766279294991
17	21961	15.9	1.2314690011916
17	22189	16	0.973
17	22415	16.1	1.1923199870604
17	22641	16.2	1.2437984192979
17	22867	16.3	1.1481829605051
17	23174	16.4	0.973
17	23481	16.5	1.1990199545766
17	23788	16.6	1.2539676267774
17	24095	16.7	1.1780211231277
17	24402	16.8	1.1747362930211
17	24709	16.9	0.973
17	25018	17	1.2645951320821
17	25325	17.1	0.973
17	25632	17.2	1.3891045966705
17	25939	17.3	0.973
17	26246	17.4	1.1906588569248
17	26553	17.5	1.1701658235221
17	26860	17.6	1.3079719799737
17	27167	17.7	0.973
17	27474	17.8	1.1861885468043
17	27781	17.9	0.973
17	28090	18	1.2125119570055
17	28397	18.1	1.1701537506991
17	28704	18.2	1.3332662753669
17	29011	18.3	0.973
17	29318	18.4	1.240971699866
17	29625	18.5	1.1761398201744
17	29932	18.6	1.1786154083663
17	30239	18.7	1.2494386587715
17	30546	18.8	0.973
17	30853	18.9	1.2641803926463
17	31162	19	1.1925781718263
17	31469	19.1	0.973
17	31776	19.2	1.2609021537488
17	32083	19.3	0.973
17	32390	19.4	1.1633133769681
17	32697	19.5	1.2991623000806
17	33004	19.6	0.973
17	33311	19.7	0.973
17	33618	19.8	1.3570389775483
17	33925	19.9	0.973
17	34234	20	1.2244197763278
17	34541	20.1	1.3173053276599
17	34848	20.2	0.973
17	35155	20.3	1.1416177906036
17	35462	20.4	1.3130412646545
17	35769	20.5	1.143105825184
17	36076	20.6	0.973
17	36383	20.7	1.2886719599349
17	36690	20.8	0.973
17	36997	20.9	1.2066289442651
17	37306	21	1.161227438737
17	37613	21.1	0.973
17	37920	21.2	0.973
17	38227	21.3	1.2719794236731
17	38534	21.4	0.973
17	38841	21.5	1.1814569372963
17	39148	21.6	1.14159839643
17	39455	21.7	1.2262838070509
17	39762	21.8	1.28684790735
17	40069	21.9	0.973
17	40378	22	1.3301615157908
17	40685	22.1	1.1463935116002
17	40992	22.2	1.2333232868292
17	41299	22.3	0.973
17	41606	22.4	0.973
17	41913	22.5	1.1541596815083
17	42220	22.6	1.2500799774879
17	42527	22.7	1.1835747889737
17	42834	22.8	1.2622961441333
17	43521	22.9	0.973
17	43923	23	1.2351693809686
17	44323	23.1	1.1907043303063
17	44723	23.2	0.973
17	45123	23.3	1.3063165717193
17	45523	23.4	0.973
17	45923	23.5	1.3271599200157
17	46323	23.6	0.973
17	46723	23.7	1.310864953133
17	47123	23.8	0.973
17	47567	23.9	1.1503818911047
17	47969	24	1.171338801281
17	48369	24.1	1.2579463040063
17	48769	24.2	0.973
17	49169	24.3	1.2627323592191
17	49569	24.4	0.973
17	49969	24.5	1.3595339061306
17	50369	24.6	0.973
17	50769	24.7	1.2031174959378
17	51169	24.8	1.1599580000663
17	51569	24.9	1.2523016526581
17	51971	25	0.973
17	52371	25.1	1.3519005242122
17	52771	25.2	0.973
17	53171	25.3	1.1761459444197
17	53571	25.4	1.3503185960978
17	53971	25.5	0.973
17	54371	25.6	1.3309773105991
17	54771	25.7	0.973
17	55171	25.8	1.3476091968833
17	55571	25.9	0.973
17	55973	26	1.2159920436384
17	56373	26.1	0.973
17	56773	26.2	1.3082471803021
17	57173	26.3	1.1628127145147
17	57573	26.4	1.1957461357666
17	57973	26.5	0.973
17	58373	26.6	1.1860254983539
17	58773	26.7	0.973
17	59173	26.8	1.2465873322297
17	59573	26.9	0.973
17	59975	27	1.2484810161455
17	60375	27.1	1.1539749257264
17	60775	27.2	1.174498094679
17	61175	27.3	1.2305521782335
17	61575	27.4	1.2211661365228
17	61975	27.5	0.973
17	62375	27.6	1.1896182541089
17	62775	27.7	1.2029385914774
17	63175	27.8	1.1836156470502
17	63575	27.9	0.973
17	63977	28	1.2617943349276
17	64377	28.1	0.973
17	64777	28.2	1.3192997268026
17	65177	28.3	0.973
17	65577	28.4	1.2533043355638
17	65977	28.5	0.973
17	66377	28.6	0.973
17	66777	28.7	1.3636054958862
17	67177	28.8	1.1641633307725
17	67577	28.9	1.1727201656017
17	67979	29	0.973
17	68379	29.1	1.3485046299891
17	68779	29.2	0.973
17	69179	29.3	1.3239822800083
17	69579	29.4	1.1631491790543
17	69979	29.5	1.1725865493749
17	70484	29.6	0.973
17	70989	29.7	1.3125787165333
17	71494	29.8	1.2092852416587
17	71999	29.9	0.973
17	72506	30	1.2237896367577
17	73011	30.1	1.2516154505173
17	73516	30.2	0.973
17	74021	30.3	1.1982182053995
17	74526	30.4	1.1884981760843
17	75031	30.5	1.1485746563543
17	75536	30.6	1.1444042009844
17	76041	30.7	1.3718973428119
17	76546	30.8	0.973
17	77051	30.9	0.973
17	77558	31	1.2231053477668
17	78063	31.1	1.1610459188254
17	78568	31.2	1.3010161806685
17	79073	31.3	1.1544195364153
17	79578	31.4	0.973
17	80083	31.5	1.1530156346674
17	80588	31.6	1.1982056637351
17	81093	31.7	1.1970743649561
17	81598	31.8	0.973
17	82103	31.9	1.2636849090106
17	82610	32	1.2134390126539
17	83115	32.1	1.2085900678477
17	83620	32.2	1.145324098001
17	84125	32.3	1.2226809962122
17	84630	32.4	1.1954146257685
17	85135	32.5	0.973
17	85640	32.6	0.973
17	86145	32.7	1.1839800467946
17	86650	32.8	0.973
17	87155	32.9	1.1582970892019
17	87662	33	1.2991507465938
17	88167	33.1	0.973
17	88672	33.2	1.2149335764813
17	89177	33.3	1.147930460533
17	89682	33.4	1.1854811109461
17	90187	33.5	0.973
17	90692	33.6	1.1636112069657
17	91197	33.7	1.2933212390101
17	91702	33.8	0.973
17	92207	33.9	1.1416493134629
17	92714	34	1.2459361289472
17	93219	34.1	1.2206083292821
17	93724	34.2	0.973
17	94229	34.3	1.2437561033199
17	94734	34.4	0.973
17	95239	34.5	1.309649483897
17	95744	34.6	0.973
17	96249	34.7	0.973
17	96754	34.8	1.2711286222522
17	97259	34.9	0.973
17	97766	35	1.2898165090294
17	98271	35.1	0.973
17	98776	35.2	0.973
17	99281	35.3	1.3234604921534
17	99786	35.4	0.973
17	100291	35.5	0.973
17	100796	35.6	1.1760255860878
17	101301	35.7	1.16284826821
17	101806	35.8	1.1677031729077
17	102311	35.9	0.973
17	102818	36	1.188066120254
17	103323	36.1	1.298202692999
17	103945	36.2	0.973
17	104541	36.3	1.1982972408831
17	105163	36.4	1.1964059102781
17	105785	36.5	1.2462597166983
17	106407	36.6	1.2241487308552
17	107029	36.7	0.973
17	107625	36.8	1.1795455059126
17	108221	36.9	0.973
17	108819	37	1.3909484550663
17	109441	37.1	0.973
17	110063	37.2	1.2591452554512
17	110685	37.3	1.1866394847465
17	111281	37.4	1.2030780184408
17	111877	37.5	0.973
17	112499	37.6	0.973
17	113121	37.7	1.1998289382771
17	113743	37.8	1.2613323786114
17	114365	37.9	0.973
17	114989	38	1.2532782776588
17	115611	38.1	1.2864012966003
17	116233	38.2	0.973
17	116855	38.3	1.2617782983648
17	117477	38.4	0.973
17	118099	38.5	1.1713961008916
17	118695	38.6	1.1499765712928
16	358	1.4	0.90381877781263
16	413	1.5	0.44516527537529
16	468	1.6	0.40293141856738
16	523	1.7	-0.28353021674169
16	578	1.8	0.18252091103932
16	633	1.9	-0.027187251544092
16	690	2	-0.24830004824455
16	745	2.1	0.59344484341434
16	800	2.2	-0.011175859900605
16	855	2.3	0.046465901282824
16	910	2.4	-0.56416766924991
16	965	2.5	0.037821587466169
16	1020	2.6	-0.06378846414413
16	1075	2.7	-0.07542097058225
16	1130	2.8	0.12462484656782
16	1185	2.9	0.23449944516566
16	1242	3	-0.22156237003704
16	1297	3.1	0.45989913325886
16	1352	3.2	-0.36225457863313
16	1407	3.3	0.34483870242386
16	1462	3.4	-0.5564691896628
16	1517	3.5	0.29362541002532
16	1572	3.6	0.074434991014034
16	1627	3.7	0.10424050673868
16	1682	3.8	-0.35394310770142
16	1737	3.9	0.2208912156574
16	1794	4	-0.077974730811547
16	1849	4.1	0.38169732660107
16	1904	4.2	-0.41586507140892
16	1959	4.3	0.0038470683244252
16	2014	4.4	-0.0033599140200136
16	2069	4.5	-0.22695421988222
16	2124	4.6	0.18189428988585
16	2179	4.7	0.22382805262977
16	2234	4.8	-0.053836146253161
16	2289	4.9	-0.18097169635843
16	2346	5	0.44264286730645
16	2401	5.1	-0.42120919776304
16	2456	5.2	-0.0026883072375017
16	2511	5.3	0.31962174446865
16	2566	5.4	0.056566849525552
16	2621	5.5	-0.12951531340756
16	2676	5.6	-0.03352946094108
16	2731	5.7	-0.14339305732089
16	2786	5.8	0.091385598999396
16	2841	5.9	-0.38178633225875
16	2898	6	0.61550626738204
16	2953	6.1	-0.074188855392598
16	3008	6.2	0.033032810703539
16	3063	6.3	-0.34152695200949
16	3118	6.4	0.27765050051837
16	3173	6.5	-0.14792998020615
16	3228	6.6	0.15408693385931
16	3283	6.7	0.059344445536327
16	3338	6.8	0.033746143971156
16	3438	6.9	-0.37913503668581
16	3540	7	-0.084733256759744
16	3640	7.1	0.28445855277823
16	3740	7.2	0.24663439156333
16	3840	7.3	-0.57248143388683
16	3940	7.4	-0.093055619638309
16	4040	7.5	0.3495095837732
16	4140	7.6	0.2867614620805
16	4240	7.7	-0.47468672807251
16	4397	7.8	0.20663379157971
16	4554	7.9	0.05712948089543
16	4713	8	-0.22862272033106
16	4870	8.1	-0.15942658792483
16	5027	8.2	0.24517125501815
16	5184	8.3	0.039041600474674
16	5341	8.4	-0.28624211877791
16	5498	8.5	0.4468326722013
16	5655	8.6	-0.39209966327892
16	5812	8.7	0.00066385901946964
16	5969	8.8	0.30803150730208
16	6126	8.9	0.16172242434954
16	6354	9	0.012846317582038
16	6580	9.1	-0.40885573414724
16	6806	9.2	-0.014522688191694
16	7032	9.3	0.12767693745748
16	7258	9.4	-0.07486366068608
16	7484	9.5	-0.013488683746092
16	7710	9.6	0.19976328864383
16	7936	9.7	-0.117675509763
16	8162	9.8	-0.0049945885419023
16	8388	9.9	-0.25529066414391
16	8616	10	0.23421880468959
16	8843	10.1	0.22030121164991
16	9069	10.2	-0.056866256798256
16	9295	10.3	0.17221399822221
16	9521	10.4	-0.15178652489946
16	9747	10.5	-0.20774593819321
16	9973	10.6	0.2999570366228
16	10199	10.7	-0.14902933099721
16	10425	10.8	-0.070248331919882
16	10651	10.9	-0.26559728867142
16	10879	11	0.054404502184804
16	11105	11.1	0.47128277672325
16	11331	11.2	-0.42816533807329
16	11557	11.3	0.14579880128925
16	11783	11.4	-0.28713486972265
16	12009	11.5	0.18091621637318
16	12235	11.6	0.48988030256522
16	12461	11.7	-0.23843756223667
16	12687	11.8	0.014287668778303
16	12913	11.9	0.09681061848015
16	13141	12	-0.18295447969447
16	13367	12.1	-0.3226599419981
16	13593	12.2	0.10030350321257
16	13819	12.3	0.14334421026029
16	14045	12.4	0.21525420225872
16	14271	12.5	-0.22406072481923
16	14497	12.6	0.024769126159501
16	14723	12.7	0.2555898824034
16	14949	12.8	-0.18466391160877
16	15175	12.9	0.13732816344903
16	15403	13	-0.16213973835369
16	15629	13.1	0.076448519959942
16	15855	13.2	-0.3311539901511
16	16081	13.3	0.27841440524854
16	16307	13.4	-0.18125006479548
16	16533	13.5	0.03584633975859
16	16759	13.6	0.30129088926414
16	16985	13.7	-0.10711428347147
16	17211	13.8	-0.09461618125594
16	17437	13.9	0.17095080483058
16	17665	14	-0.28217876501407
16	17891	14.1	0.32248040079139
16	18117	14.2	-0.46165967133776
16	18343	14.3	0.25145617578851
16	18569	14.4	0.25312944991229
16	18795	14.5	-0.21519522172942
16	19021	14.6	-0.23889225154158
16	19247	14.7	0.20152857905487
16	19473	14.8	-0.1299271879058
16	19699	14.9	0.36194057093881
16	19927	15	0.040588040752076
16	20153	15.1	-0.44478624412376
16	20379	15.2	0.38046858195836
16	20605	15.3	-0.25487887356172
16	20831	15.4	0.20663960199777
16	21057	15.5	0.18783709318895
16	21283	15.6	-0.56708921070418
16	21509	15.7	0.17126939217431
16	21735	15.8	0.0041409995497421
16	21961	15.9	0.16825567678703
16	22189	16	-0.37549359921185
16	22415	16.1	0.055324412662434
16	22641	16.2	0.20907108070484
16	22867	16.3	-0.083150321895824
16	23174	16.4	-0.16974520048178
16	23481	16.5	0.075514011162643
16	23788	16.6	0.23824823826241
16	24095	16.7	0.0064998611277489
16	24402	16.8	-0.0034639902878553
16	24709	16.9	-0.26580019896048
16	25018	17	0.27039851184883
16	25325	17.1	-0.36577362205005
16	25632	17.2	0.63351703785075
16	25939	17.3	-0.60341083347642
16	26246	17.4	0.050302710668702
16	26553	17.5	-0.01331815777424
16	26860	17.6	0.39823795781962
16	27167	17.7	-0.16096874201644
16	27474	17.8	0.031888369509641
16	27781	17.9	-0.26726045018424
16	28090	18	0.11585451801592
16	28397	18.1	-0.014805049835962
16	28704	18.2	0.46643816652552
16	29011	18.3	-0.53437763692475
16	29318	18.4	0.20025927369716
16	29625	18.5	0.0016726076460638
16	29932	18.6	0.0091115397582264
16	30239	18.7	0.21904330933467
16	30546	18.8	-0.26344202633481
16	30853	18.9	0.26343995155508
16	31162	19	0.046951317118429
16	31469	19.1	-0.49174881165123
16	31776	19.2	0.25977262557717
16	32083	19.3	-0.20134603740492
16	32390	19.4	-0.035221759915454
16	32697	19.5	0.37090141073956
16	33004	19.6	-0.2256568228606
16	33311	19.7	-0.21195230381434
16	33618	19.8	0.54029274130395
16	33925	19.9	-0.60020584027775
16	34234	20	0.15388968232502
16	34541	20.1	0.42217013105983
16	34848	20.2	-0.28616516226773
16	35155	20.3	-0.10307012077343
16	35462	20.4	0.40850178645794
16	35769	20.5	-0.10079562990642
16	36076	20.6	-0.19159831669337
16	36383	20.7	0.33375664610907
16	36690	20.8	-0.23872311479257
16	36997	20.9	0.091371647593204
16	37306	21	-0.04542794097991
16	37613	21.1	-0.22913646615861
16	37920	21.2	-0.11236944103277
16	38227	21.3	0.2924353510025
16	38534	21.4	-0.32861865992244
16	38841	21.5	0.021792130751741
16	39148	21.6	-0.10162749240408
16	39455	21.7	0.15987526227643
16	39762	21.8	0.33433970464911
16	40069	21.9	-0.44433098810259
16	40378	22	0.46444895318321
16	40685	22.1	-0.090169348146041
16	40992	22.2	0.16964641383513
16	41299	22.3	-0.18085273865533
16	41606	22.4	-0.29256261396869
16	41913	22.5	-0.06279688790932
16	42220	22.6	0.22958403149257
16	42527	22.7	0.024804468396018
16	42834	22.8	0.25750939530553
16	43521	22.9	-0.3890575160363
16	43923	23	0.18163628507561
16	44323	23.1	0.044935979531147
16	44723	23.2	-0.41442027367238
16	45123	23.3	0.39780549365484
16	45523	23.4	-0.391209537338
16	45923	23.5	0.45812100692678
16	46323	23.6	-0.21892763341182
16	46723	23.7	0.40065717152579
16	47123	23.8	-0.32205650673455
16	47567	23.9	-0.076342195906263
16	47969	24	-0.011557612581075
16	48369	24.1	0.24744981783442
16	48769	24.2	-0.12327782007762
16	49169	24.3	0.25744803036408
16	49569	24.4	-0.56713701164376
16	49969	24.5	0.54893653108997
16	50369	24.6	-0.42253098072251
16	50769	24.7	0.085941399124243
16	51169	24.8	-0.046453198916019
16	51569	24.9	0.23147219924593
16	51971	25	-0.45637276440781
16	52371	25.1	0.5301264958689
16	52771	25.2	-0.45301900212912
16	53171	25.3	0.0057785597164184
16	53571	25.4	0.52143498323858
16	53971	25.5	-0.55476628476754
16	54371	25.6	0.46753334657599
16	54771	25.7	-0.44428463394676
16	55171	25.8	0.51419063222258
16	55571	25.9	-0.38235624330506
16	55973	26	0.12420211294537
16	56373	26.1	-0.26420156856249
16	56773	26.2	0.40103961057159
16	57173	26.3	-0.040055454883259
16	57573	26.4	0.059097758720681
16	57973	26.5	-0.12812645889224
16	58373	26.6	0.031277880771086
16	58773	26.7	-0.37353287447736
16	59173	26.8	0.22096162590767
16	59573	26.9	-0.24095071744846
16	59975	27	0.22724786815363
16	60375	27.1	-0.064250638469174
16	60775	27.2	-0.00049209144587392
16	61175	27.3	0.16894049929558
16	61575	27.4	0.13672108212227
16	61975	27.5	-0.36321699460839
16	62375	27.6	0.046680033523847
16	62775	27.7	0.086228598795262
16	63175	27.8	0.026096636591117
16	63575	27.9	-0.16694308190684
16	63977	28	0.26376872265246
16	64377	28.1	-0.26206322525266
16	64777	28.2	0.43184866145667
16	65177	28.3	-0.33229446142084
16	65577	28.4	0.23542650499925
16	65977	28.5	-0.19351975934114
16	66377	28.6	-0.12492684294961
16	66777	28.7	0.55789270053437
16	67177	28.8	-0.038390791289404
16	67577	28.9	-0.012545204339807
16	67979	29	-0.57911157831162
16	68379	29.1	0.51850827084208
16	68779	29.2	-0.36802819587239
16	69179	29.3	0.44112263405825
16	69579	29.4	-0.040954980391283
16	69979	29.5	-0.012384839485298
16	70484	29.6	-0.51052556211491
16	70989	29.7	0.4136004229723
16	71494	29.8	0.098124253660596
16	71999	29.9	-0.35222205802307
16	72506	30	0.14701032535716
16	73011	30.1	0.22499665954254
16	73516	30.2	-0.49996559569586
16	74021	30.3	0.072928701087625
16	74526	30.4	0.041996063696894
16	75031	30.5	-0.080784786971182
16	75536	30.6	-0.093003452800784
16	76041	30.7	0.58522405565276
16	76546	30.8	-0.1878945933034
16	77051	30.9	-0.37197183491015
16	77558	31	0.14904496088598
16	78063	31.1	-0.042435350607977
16	78568	31.2	0.37570692301314
16	79073	31.3	-0.066151115525928
16	79578	31.4	-0.33421211879209
16	80083	31.5	-0.066431535297953
16	80588	31.6	0.073253617544347
16	81093	31.7	0.06835293849387
16	81598	31.8	-0.1760869493915
16	82103	31.9	0.27094923716504
16	82610	32	0.11402491412203
16	83115	32.1	0.097129180115492
16	83620	32.2	-0.093369735016797
16	84125	32.3	0.13859976073339
16	84630	32.4	0.055412693634733
16	85135	32.5	-0.17631199362869
16	85640	32.6	-0.14754574674751
16	86145	32.7	0.026018131272092
16	86650	32.8	-0.21365307750077
16	87155	32.9	-0.049779364942675
16	87662	33	0.37449484290038
16	88167	33.1	-0.22702660288713
16	88672	33.2	0.1208317535606
16	89177	33.3	-0.083849348528828
16	89682	33.4	0.031442835784725
16	90187	33.5	-0.12163207106318
16	90692	33.6	-0.033923483149718
16	91197	33.7	0.35508955463431
16	91702	33.8	-0.15459053732532
16	92207	33.9	-0.10302928454217
16	92714	34	0.21274233828687
16	93219	34.1	0.13242519990955
16	93724	34.2	-0.41039534424069
16	94229	34.3	0.20820901700063
16	94734	34.4	-0.19297753234342
16	95239	34.5	0.40051615085556
16	95744	34.6	-0.15413818974695
16	96249	34.7	-0.41826499881507
16	96754	34.8	0.29450171374871
16	97259	34.9	-0.11594943061937
16	97766	35	0.34279336088932
16	98271	35.1	-0.24068145802529
16	98776	35.2	-0.28361718011891
16	99281	35.3	0.44812730888629
16	99786	35.4	-0.10836793452553
16	100291	35.5	-0.14049527202992
16	100796	35.6	0.0035645398181972
16	101301	35.7	-0.036779163282417
16	101806	35.8	-0.021417017301752
16	102311	35.9	-0.12524917902839
16	102818	36	0.043409151516649
16	103323	36.1	0.37189858768316
16	103945	36.2	-0.32069073883273
16	104541	36.3	0.072846881165687
16	105163	36.4	0.065669922817808
16	105785	36.5	0.212879979679
16	106407	36.6	0.14215474527898
16	107029	36.7	-0.32968997483193
16	107625	36.8	0.013047481641277
16	108221	36.9	-0.26359986578528
16	108819	37	0.63980518542748
16	109441	37.1	-0.38630747569389
16	110063	37.2	0.24984834114245
16	110685	37.3	0.030214443460055
16	111281	37.4	0.078190632565465
16	111877	37.5	-0.12613077512166
16	112499	37.6	-0.19543022661108
16	113121	37.7	0.073393009531879
16	113743	37.8	0.25271445176461
16	114365	37.9	-0.52604895722147
16	114989	38	0.23773780946309
16	115611	38.1	0.32640285030033
16	116233	38.2	-0.44435586007441
16	116855	38.3	0.25895990418374
16	117477	38.4	-0.33453048316814
16	118099	38.5	-0.010035945322469
16	118695	38.6	-0.075887835959696
15	303	1.3	1.1870694582883
15	358	1.4	1.2774513360696
15	413	1.5	1.3219678636071
15	468	1.6	1.3622610054639
15	523	1.7	1.3339079837897
15	578	1.8	1.3521600748936
15	633	1.9	1.3494413497392
15	690	2	1.3246113449148
15	745	2.1	1.3839558292562
15	800	2.2	1.3828382432661
15	855	2.3	1.3874848333944
15	910	2.4	1.3310680664694
15	965	2.5	1.334850225216
15	1020	2.6	1.3284713788016
15	1075	2.7	1.3209292817434
15	1130	2.8	1.3333917664002
15	1185	2.9	1.3568417109167
15	1242	3	1.334685473913
15	1297	3.1	1.3806753872389
15	1352	3.2	1.3444499293756
15	1407	3.3	1.378933799618
15	1462	3.4	1.3232868806517
15	1517	3.5	1.3526494216543
15	1572	3.6	1.3600929207557
15	1627	3.7	1.3705169714295
15	1682	3.8	1.3351226606594
15	1737	3.9	1.3572117822251
15	1794	4	1.349414309144
15	1849	4.1	1.3875840418041
15	1904	4.2	1.3459975346632
15	1959	4.3	1.3463822414956
15	2014	4.4	1.3460462500936
15	2069	4.5	1.3233508281054
15	2124	4.6	1.341540257094
15	2179	4.7	1.363923062357
15	2234	4.8	1.3585394477316
15	2289	4.9	1.3404422780958
15	2346	5	1.3847065648265
15	2401	5.1	1.3425856450501
15	2456	5.2	1.3423168143264
15	2511	5.3	1.3742789887733
15	2566	5.4	1.3799356737258
15	2621	5.5	1.3669841423851
15	2676	5.6	1.363631196291
15	2731	5.7	1.3492918905589
15	2786	5.8	1.3584304504588
15	2841	5.9	1.3202518172329
15	2898	6	1.3818024439711
15	2953	6.1	1.3743835584319
15	3008	6.2	1.3776868395022
15	3063	6.3	1.3435341443013
15	3118	6.4	1.3712991943531
15	3173	6.5	1.3565061963325
15	3228	6.6	1.3719148897184
15	3283	6.7	1.3778493342721
15	3338	6.8	1.3812239486692
15	3438	6.9	1.3433104450006
15	3540	7	1.3348371193246
15	3640	7.1	1.3632829746024
15	3740	7.2	1.3879464137588
15	3840	7.3	1.3306982703701
15	3940	7.4	1.3213927084063
15	4040	7.5	1.3563436667836
15	4140	7.6	1.3850198129916
15	4240	7.7	1.3375511401844
15	4397	7.8	1.3582145193424
15	4554	7.9	1.3639274674319
15	4713	8	1.3410651953988
15	4870	8.1	1.3251225366063
15	5027	8.2	1.3496396621081
15	5184	8.3	1.3535438221556
15	5341	8.4	1.3249196102778
15	5498	8.5	1.3696028774979
15	5655	8.6	1.33039291117
15	5812	8.7	1.330459297072
15	5969	8.8	1.3612624478022
15	6126	8.9	1.3774346902371
15	6354	9	1.3787193219954
15	6580	9.1	1.3378337485806
15	6806	9.2	1.3363814797615
15	7032	9.3	1.3491491735072
15	7258	9.4	1.3416628074386
15	7484	9.5	1.340313939064
15	7710	9.6	1.3602902679284
15	7936	9.7	1.3485227169521
15	8162	9.8	1.3480232580979
15	8388	9.9	1.3224941916835
15	8616	10	1.3459160721525
15	8843	10.1	1.3679461933174
15	9069	10.2	1.3622595676376
15	9295	10.3	1.3794809674598
15	9521	10.4	1.3643023149699
15	9747	10.5	1.3435277211506
15	9973	10.6	1.3735234248129
15	10199	10.7	1.3586204917131
15	10425	10.8	1.3515956585211
15	10651	10.9	1.325035929654
15	10879	11	1.3304763798725
15	11105	11.1	1.3776046575448
15	11331	11.2	1.3347881237375
15	11557	11.3	1.3493680038664
15	11783	11.4	1.3206545168941
15	12009	11.5	1.3387461385315
15	12235	11.6	1.387734168788
15	12461	11.7	1.3638904125643
15	12687	11.8	1.3653191794421
15	12913	11.9	1.3750002412902
15	13141	12	1.3567047933207
15	13367	12.1	1.3244387991209
15	13593	12.2	1.3344691494422
15	13819	12.3	1.3488035704682
15	14045	12.4	1.3703289906941
15	14271	12.5	1.3479229182121
15	14497	12.6	1.3503998308281
15	14723	12.7	1.3759588190684
15	14949	12.8	1.3574924279075
15	15175	12.9	1.3712252442525
15	15403	13	1.3550112704171
15	15629	13.1	1.3626561224131
15	15855	13.2	1.329540723398
15	16081	13.3	1.3573821639228
15	16307	13.4	1.3392571574433
15	16533	13.5	1.3428417914191
15	16759	13.6	1.3729708803455
15	16985	13.7	1.3622594519984
15	17211	13.8	1.3527978338728
15	17437	13.9	1.3698929143559
15	17665	14	1.3416750378545
15	17891	14.1	1.3739230779336
15	18117	14.2	1.3277571107998
15	18343	14.3	1.3529027283787
15	18569	14.4	1.3782156733699
15	18795	14.5	1.356696151197
15	19021	14.6	1.3328069260428
15	19247	14.7	1.3529597839483
15	19473	14.8	1.3399670651577
15	19699	14.9	1.3761611222516
15	19927	15	1.3802199263268
15	20153	15.1	1.3357413019144
15	20379	15.2	1.3737881601103
15	20605	15.3	1.3483002727541
15	20831	15.4	1.3689642329539
15	21057	15.5	1.3877479422728
15	21283	15.6	1.3310390212023
15	21509	15.7	1.3481659604198
15	21735	15.8	1.3485800603747
15	21961	15.9	1.3654056280534
15	22189	16	1.3278562681323
15	22415	16.1	1.3333887093985
15	22641	16.2	1.354295817469
15	22867	16.3	1.3459807852794
15	23174	16.4	1.3290062652312
15	23481	16.5	1.3365576663475
15	23788	16.6	1.3603824901737
15	24095	16.7	1.3610324762865
15	24402	16.8	1.3606860772577
15	24709	16.9	1.3341060573617
15	25018	17	1.3611459085466
15	25325	17.1	1.3245685463416
15	25632	17.2	1.3879202501266
15	25939	17.3	1.327579166779
15	26246	17.4	1.3326094378459
15	26553	17.5	1.3312776220684
15	26860	17.6	1.3711014178504
15	27167	17.7	1.3550045436487
15	27474	17.8	1.3581933805997
15	27781	17.9	1.3314673355813
15	28090	18	1.3430527873829
15	28397	18.1	1.3415722823993
15	28704	18.2	1.3882160990518
15	29011	18.3	1.3347783353594
15	29318	18.4	1.3548042627291
15	29625	18.5	1.3549715234937
15	29932	18.6	1.3558826774695
15	30239	18.7	1.377787008403
15	30546	18.8	1.3514428057695
15	30853	18.9	1.377786800925
15	31162	19	1.3824819326368
15	31469	19.1	1.3333070514717
15	31776	19.2	1.3592843140294
15	32083	19.3	1.3391497102889
15	32390	19.4	1.3356275342974
15	32697	19.5	1.3727176753714
15	33004	19.6	1.3501519930853
15	33311	19.7	1.3289567627039
15	33618	19.8	1.3829860368343
15	33925	19.9	1.3229654528065
15	34234	20	1.338354421039
15	34541	20.1	1.380571434145
15	34848	20.2	1.3519549179182
15	35155	20.3	1.3416479058408
15	35462	20.4	1.3824980844866
15	35769	20.5	1.372418521496
15	36076	20.6	1.3532586898267
15	36383	20.7	1.3866343544376
15	36690	20.8	1.3627620429583
15	36997	20.9	1.3718992077176
15	37306	21	1.3673564136196
15	37613	21.1	1.3444427670038
15	37920	21.2	1.3332058229005
15	38227	21.3	1.3624493580008
15	38534	21.4	1.3295874920085
15	38841	21.5	1.3317667050837
15	39148	21.6	1.3216039558433
15	39455	21.7	1.3375914820709
15	39762	21.8	1.3710254525358
15	40069	21.9	1.3265923537256
15	40378	22	1.3730372490439
15	40685	22.1	1.3640203142293
15	40992	22.2	1.3809849556128
15	41299	22.3	1.3628996817473
15	41606	22.4	1.3336434203504
15	41913	22.5	1.3273637315595
15	42220	22.6	1.3503221347087
15	42527	22.7	1.3528025815483
15	42834	22.8	1.3785535210789
15	43521	22.9	1.3396477694753
15	43923	23	1.3578113979828
15	44323	23.1	1.3623049959359
15	44723	23.2	1.3208629685687
15	45123	23.3	1.3606435179342
15	45523	23.4	1.3215225642004
15	45923	23.5	1.3673346648931
15	46323	23.6	1.3454419015519
15	46723	23.7	1.3855076187044
15	47123	23.8	1.353301968031
15	47567	23.9	1.3456677484404
15	47969	24	1.3445119871823
15	48369	24.1	1.3692569689657
15	48769	24.2	1.3569291869579
15	49169	24.3	1.3826739899943
15	49569	24.4	1.32596028883
15	49969	24.5	1.380853941939
15	50369	24.6	1.3386008438667
15	50769	24.7	1.3471949837791
15	51169	24.8	1.3425496638875
15	51569	24.9	1.3656968838121
15	51971	25	1.3200596073714
15	52371	25.1	1.3730722569582
15	52771	25.2	1.3277703567453
15	53171	25.3	1.328348212717
15	53571	25.4	1.3804917110408
15	53971	25.5	1.3250150825641
15	54371	25.6	1.3717684172217
15	54771	25.7	1.327339953827
15	55171	25.8	1.3787590170493
15	55571	25.9	1.3405233927188
15	55973	26	1.3529436040133
15	56373	26.1	1.326523447157
15	56773	26.2	1.3666274082142
15	57173	26.3	1.3626218627259
15	57573	26.4	1.3685316385979
15	57973	26.5	1.3557189927087
15	58373	26.6	1.3588467807858
15	58773	26.7	1.3214934933381
15	59173	26.8	1.3435896559289
15	59573	26.9	1.319494584184
15	59975	27	1.3422193709994
15	60375	27.1	1.3357943071525
15	60775	27.2	1.3357450980079
15	61175	27.3	1.3526391479374
15	61575	27.4	1.3663112561497
15	61975	27.5	1.3299895566888
15	62375	27.6	1.3346575600412
15	62775	27.7	1.3432804199207
15	63175	27.8	1.3458900835798
15	63575	27.9	1.3291957753892
15	63977	28	1.3555726476544
15	64377	28.1	1.3293663251291
15	64777	28.2	1.3725511912748
15	65177	28.3	1.3393217451327
15	65577	28.4	1.3628643956326
15	65977	28.5	1.3435124196985
15	66377	28.6	1.3310197354036
15	66777	28.7	1.386809005457
15	67177	28.8	1.3829699263281
15	67577	28.9	1.3817154058941
15	67979	29	1.3238042480629
15	68379	29.1	1.3756550751471
15	68779	29.2	1.3388522555599
15	69179	29.3	1.3829645189657
15	69579	29.4	1.3788690209266
15	69979	29.5	1.3776305369781
15	70484	29.6	1.3265779807666
15	70989	29.7	1.3679380230638
15	71494	29.8	1.3777504484299
15	71999	29.9	1.3425282426275
15	72506	30	1.3572292751633
15	73011	30.1	1.3797289411175
15	73516	30.2	1.3297323815479
15	74021	30.3	1.3370252516567
15	74526	30.4	1.3412248580264
15	75031	30.5	1.3331463793293
15	75536	30.6	1.3238460340492
15	76041	30.7	1.3823684396145
15	76546	30.8	1.3635789802841
15	77051	30.9	1.3263817967931
15	77558	31	1.3412862928817
15	78063	31.1	1.3370427578209
15	78568	31.2	1.3746134501222
15	79073	31.3	1.3679983385696
15	79578	31.4	1.3345771266904
15	80083	31.5	1.3279339731606
15	80588	31.6	1.3352593349151
15	81093	31.7	1.3420946287644
15	81598	31.8	1.3244859338253
15	82103	31.9	1.3515808575418
15	82610	32	1.362983348954
15	83115	32.1	1.3726962669656
15	83620	32.2	1.3633592934639
15	84125	32.3	1.3772192695372
15	84630	32.4	1.3827605389007
15	85135	32.5	1.3651293395378
15	85640	32.6	1.3503747648631
15	86145	32.7	1.3529765779903
15	86650	32.8	1.3316112702402
15	87155	32.9	1.3266333337459
15	87662	33	1.364082818036
15	88167	33.1	1.3413801577473
15	88672	33.2	1.3534633331033
15	89177	33.3	1.3450783982504
15	89682	33.4	1.3482226818289
15	90187	33.5	1.3360594747226
15	90692	33.6	1.3326671264076
15	91197	33.7	1.368176081871
15	91702	33.8	1.3527170281385
15	92207	33.9	1.3424140996843
15	92714	34	1.363688333513
15	93219	34.1	1.3769308535039
15	93724	34.2	1.3358913190799
15	94229	34.3	1.3567122207799
15	94734	34.4	1.3374144675456
15	95239	34.5	1.3774660826311
15	95744	34.6	1.3620522636565
15	96249	34.7	1.3202257637749
15	96754	34.8	1.3496759351498
15	97259	34.9	1.3380809920879
15	97766	35	1.3723603281768
15	98271	35.1	1.3482921823743
15	98776	35.2	1.3199304643624
15	99281	35.3	1.364743195251
15	99786	35.4	1.3539064017985
15	100291	35.5	1.3398568745955
15	100796	35.6	1.3402133285773
15	101301	35.7	1.3365354122491
15	101806	35.8	1.3343937105189
15	102311	35.9	1.321868792616
15	102818	36	1.3262097077677
15	103323	36.1	1.363399566536
15	103945	36.2	1.3313304926527
15	104541	36.3	1.3386151807693
15	105163	36.4	1.3451821730511
15	105785	36.5	1.366470171019
15	106407	36.6	1.3806856455469
15	107029	36.7	1.3477166480637
15	107625	36.8	1.3490213962278
15	108221	36.9	1.3226614096493
15	108819	37	1.386641928192
15	109441	37.1	1.3480111806227
15	110063	37.2	1.3729960147369
15	110685	37.3	1.3760174590829
15	111281	37.4	1.3838365223395
15	111877	37.5	1.3712234448273
15	112499	37.6	1.3516804221662
15	113121	37.7	1.3590197231194
15	113743	37.8	1.3842911682958
15	114365	37.9	1.3316862725737
15	114989	38	1.35546005352
15	115611	38.1	1.38810033855
15	116233	38.2	1.3436647525426
15	116855	38.3	1.369560742961
15	117477	38.4	1.3361076946441
15	118099	38.5	1.3351041001119
15	118695	38.6	1.3275153165159
14	248	1.2	1577.2985720718
14	303	1.3	1577.2985720718
14	358	1.4	1577.3394871801
14	413	1.5	1577.3835175093
14	468	1.6	1577.4290822046
14	523	1.7	1577.4760356965
14	578	1.8	1577.5220119357
14	633	1.9	1577.5686172759
14	690	2	1577.6151289083
14	745	2.1	1577.6607847176
14	800	2.2	1577.7084859721
14	855	2.3	1577.7561487062
14	910	2.4	1577.8039715961
14	965	2.5	1577.8498499505
14	1020	2.6	1577.8958586669
14	1075	2.7	1577.9416475203
14	1130	2.8	1577.9871764183
14	1185	2.9	1578.0331348646
14	1242	3	1578.0799015686
14	1297	3.1	1578.1259046057
14	1352	3.2	1578.1734927921
14	1407	3.3	1578.2198323831
14	1462	3.4	1578.267360542
14	1517	3.5	1578.3129706997
14	1572	3.6	1578.3595929062
14	1627	3.7	1578.4064716706
14	1682	3.8	1578.4537097234
14	1737	3.9	1578.4997278294
14	1794	4	1578.5465072878
14	1849	4.1	1578.5930179888
14	1904	4.2	1578.6408442976
14	1959	4.3	1578.6872372311
14	2014	4.4	1578.7336434247
14	2069	4.5	1578.7800380373
14	2124	4.6	1578.8256503996
14	2179	4.7	1578.871889703
14	2234	4.8	1578.9189004814
14	2289	4.9	1578.9657257013
14	2346	5	1579.0119271604
14	2401	5.1	1579.0596542908
14	2456	5.2	1579.1059296252
14	2511	5.3	1579.1521956949
14	2566	5.4	1579.1995634139
14	2621	5.5	1579.2471261043
14	2676	5.6	1579.2942423904
14	2731	5.7	1579.3412431087
14	2786	5.8	1579.38774959
14	2841	5.9	1579.4345710529
14	2898	6	1579.4800766008
14	2953	6.1	1579.5277036335
14	3008	6.2	1579.5750749577
14	3063	6.3	1579.622560137
14	3118	6.4	1579.6688681645
14	3173	6.5	1579.7161331782
14	3228	6.6	1579.762888317
14	3283	6.7	1579.8101745527
14	3338	6.8	1579.857665333
14	3438	6.9	1579.905272427
14	3540	7	1579.9515727432
14	3640	7.1	1579.997581007
14	3740	7.2	1580.0445697242
14	3840	7.3	1580.092408523
14	3940	7.4	1580.1382741323
14	4040	7.5	1580.1838190034
14	4140	7.6	1580.2305685403
14	4240	7.7	1580.2783064675
14	4397	7.8	1580.324408276
14	4554	7.9	1580.3712222967
14	4713	8	1580.418233227
14	4870	8.1	1580.4644561559
14	5027	8.2	1580.5101295849
14	5184	8.3	1580.5566480523
14	5341	8.4	1580.6033010865
14	5498	8.5	1580.6489675203
14	5655	8.6	1580.6961740674
14	5812	8.7	1580.7420291509
14	5969	8.8	1580.7878865227
14	6126	8.9	1580.8348055976
14	6354	9	1580.8822820857
14	6580	9.1	1580.9298028518
14	6806	9.2	1580.9759144019
14	7032	9.3	1581.0219758954
14	7258	9.4	1581.0684774574
14	7484	9.5	1581.1147209844
14	7710	9.6	1581.1938297907
14	7936	9.7	1581.2906243419
14	8162	9.8	1581.3865815457
14	8388	9.9	1581.4825032093
14	8616	10	1581.5766082946
14	8843	10.1	1581.6723800162
14	9069	10.2	1581.7697193418
14	9295	10.3	1581.8666540226
14	9521	10.4	1581.9648141311
14	9747	10.5	1582.0618941681
14	9973	10.6	1582.157495942
14	10199	10.7	1582.2552321283
14	10425	10.8	1582.3519078624
14	10651	10.9	1582.4480837286
14	10879	11	1582.5423696758
14	11105	11.1	1582.6370427515
14	11331	11.2	1582.7350693475
14	11557	11.3	1582.8300492354
14	11783	11.4	1582.9260665877
14	12009	11.5	1583.0200407663
14	12235	11.6	1583.1153022954
14	12461	11.7	1583.2140496792
14	12687	11.8	1583.3111004066
14	12913	11.9	1583.4082528008
14	13141	12	1583.5060940729
14	13367	12.1	1583.6026334912
14	13593	12.2	1583.6968769496
14	13819	12.3	1583.7918341393
14	14045	12.4	1583.8878113283
14	14271	12.5	1583.9853202067
14	14497	12.6	1584.0812347308
14	14723	12.7	1584.1773255048
14	14949	12.8	1584.275234987
14	15175	12.9	1584.3718304513
14	15403	13	1584.4694031049
14	15629	13.1	1584.5658220174
14	15855	13.2	1584.6627849154
14	16081	13.3	1584.7573914127
14	16307	13.4	1584.8539790306
14	16533	13.5	1584.9492769223
14	16759	13.6	1585.0448298873
14	16985	13.7	1585.1425267551
14	17211	13.8	1585.2394614285
14	17437	13.9	1585.3357228376
14	17665	14	1585.4332006862
14	17891	14.1	1585.5286706286
14	18117	14.2	1585.6264352528
14	18343	14.3	1585.7209148323
14	18569	14.4	1585.817183706
14	18795	14.5	1585.9152537799
14	19021	14.6	1586.0117925834
14	19247	14.7	1586.1066314941
14	19473	14.8	1586.2029044274
14	19699	14.9	1586.2982528349
14	19927	15	1586.3961767117
14	20153	15.1	1586.4943894027
14	20379	15.2	1586.5894371159
14	20605	15.3	1586.6871921401
14	20831	15.4	1586.7831335161
14	21057	15.5	1586.8805452818
14	21283	15.6	1586.9792936463
14	21509	15.7	1587.0740067577
14	21735	15.8	1587.1699385764
14	21961	15.9	1587.2658998603
14	22189	16	1587.3630584059
14	22415	16.1	1587.457545042
14	22641	16.2	1587.552425351
14	22867	16.3	1587.6487933528
14	23174	16.4	1587.7445696797
14	23481	16.5	1587.8391381465
14	23788	16.6	1587.9342439491
14	24095	16.7	1588.0310450625
14	24402	16.8	1588.1278924271
14	24709	16.9	1588.2247151425
14	25018	17	1588.3196464963
14	25325	17.1	1588.4165019318
14	25632	17.2	1588.5107546225
14	25939	17.3	1588.6095152469
14	26246	17.4	1588.7039821651
14	26553	17.5	1588.7988070231
14	26860	17.6	1588.8935371134
14	27167	17.7	1588.9911009558
14	27474	17.8	1589.0875193886
14	27781	17.9	1589.1841647308
14	28090	18	1589.2789083207
14	28397	18.1	1589.3744762987
14	28704	18.2	1589.4699389292
14	29011	18.3	1589.5687206052
14	29318	18.4	1589.6636997964
14	29625	18.5	1589.7601039782
14	29932	18.6	1589.8565200614
14	30239	18.7	1589.9530009804
14	30546	18.8	1590.0510405516
14	30853	18.9	1590.1472055409
14	31162	19	1590.2452450972
14	31469	19.1	1590.3436187468
14	31776	19.2	1590.4384932453
14	32083	19.3	1590.5352162151
14	32390	19.4	1590.6305064615
14	32697	19.5	1590.7255460788
14	33004	19.6	1590.8232249301
14	33311	19.7	1590.9192980686
14	33618	19.8	1591.0138630131
14	33925	19.9	1591.1122725327
14	34234	20	1591.2064111512
14	34541	20.1	1591.3016448068
14	34848	20.2	1591.3998825103
14	35155	20.3	1591.4960839404
14	35462	20.4	1591.5915519511
14	35769	20.5	1591.68992675
14	36076	20.6	1591.7875843141
14	36383	20.7	1591.883878517
14	36690	20.8	1591.9825476408
14	36997	20.9	1592.079518076
14	37306	21	1592.177138688
14	37613	21.1	1592.2744360464
14	37920	21.2	1592.3701029317
14	38227	21.3	1592.4649702273
14	38534	21.4	1592.5619184133
14	38841	21.5	1592.6565282382
14	39148	21.6	1592.7512931293
14	39455	21.7	1592.8453348679
14	39762	21.8	1592.9405142348
14	40069	21.9	1593.0380726717
14	40378	22	1593.132469371
14	40685	22.1	1593.2301709624
14	40992	22.2	1593.3272309331
14	41299	22.3	1593.4254980609
14	41606	22.4	1593.5224782908
14	41913	22.5	1593.6173767243
14	42220	22.6	1593.7118283128
14	42527	22.7	1593.8079135576
14	42834	22.8	1593.9041753057
14	43521	22.9	1594.0022694198
14	43923	23	1594.0975951068
14	44323	23.1	1594.1942132674
14	44723	23.2	1594.2911511809
14	45123	23.3	1594.3851401927
14	45523	23.4	1594.4819598794
14	45923	23.5	1594.5759958262
14	46323	23.6	1594.6732916366
14	46723	23.7	1594.7690296182
14	47123	23.8	1594.8676185673
14	47567	23.9	1594.9639158491
14	47969	24	1595.0596699016
14	48369	24.1	1595.1553417128
14	48769	24.2	1595.2527743094
14	49169	24.3	1595.3493296951
14	49569	24.4	1595.44771701
14	49969	24.5	1595.5420687329
14	50369	24.6	1595.6403265391
14	50769	24.7	1595.7355777295
14	51169	24.8	1595.8314404553
14	51569	24.9	1595.9269726332
14	51971	25	1596.0241519036
14	52371	25.1	1596.1180837508
14	52771	25.2	1596.2157878326
14	53171	25.3	1596.3102683555
14	53571	25.4	1596.4047899963
14	53971	25.5	1596.5030220272
14	54371	25.6	1596.5973064918
14	54771	25.7	1596.6949177962
14	55171	25.8	1596.7893676925
14	55571	25.9	1596.8874764284
14	55973	26	1596.9828644227
14	56373	26.1	1597.0791362049
14	56773	26.2	1597.1735280007
14	57173	26.3	1597.2707734853
14	57573	26.4	1597.3677339451
14	57973	26.5	1597.4651149297
14	58373	26.6	1597.5615842007
14	58773	26.7	1597.6582760373
14	59173	26.8	1597.7523099156
14	59573	26.9	1597.8479160955
14	59975	27	1597.9418077366
14	60375	27.1	1598.0373164117
14	60775	27.2	1598.1323678968
14	61175	27.3	1598.2274158802
14	61575	27.4	1598.3236659979
14	61975	27.5	1598.4208889855
14	62375	27.6	1598.5155274207
14	62775	27.7	1598.6104980176
14	63175	27.8	1598.7060821941
14	63575	27.9	1598.801852067
14	63977	28	1598.8964340184
14	64377	28.1	1598.9928928753
14	64777	28.2	1599.0874869628
14	65177	28.3	1599.1851539677
14	65577	28.4	1599.2804564554
14	65977	28.5	1599.3774341745
14	66377	28.6	1599.4730348587
14	66777	28.7	1599.5677465983
14	67177	28.8	1599.6664281506
14	67577	28.9	1599.7648365237
14	67979	29	1599.8631556286
14	68379	29.1	1599.9573539337
14	68779	29.2	1600.0552418027
14	69179	29.3	1600.150510883
14	69579	29.4	1600.2489188714
14	69979	29.5	1600.347035436
14	70484	29.6	1600.4450638723
14	70989	29.7	1600.5394595489
14	71494	29.8	1600.6367982933
14	71999	29.9	1600.7348352624
14	72506	30	1600.8303659158
14	73011	30.1	1600.9269426549
14	73516	30.2	1601.0251204083
14	74021	30.3	1601.1197405439
14	74526	30.4	1601.214879619
14	75031	30.5	1601.3103175275
14	75536	30.6	1601.405180593
14	76041	30.7	1601.499381871
14	76546	30.8	1601.5977474442
14	77051	30.9	1601.6947760107
14	77558	31	1601.7891577268
14	78063	31.1	1601.884600007
14	78568	31.2	1601.9797403282
14	79073	31.3	1602.0775540778
14	79578	31.4	1602.1748971138
14	80083	31.5	1602.2698619869
14	80588	31.6	1602.3643541522
14	81093	31.7	1602.4593675695
14	81598	31.8	1602.5548673682
14	82103	31.9	1602.6491141804
14	82610	32	1602.7452889932
14	83115	32.1	1602.8422751762
14	83620	32.2	1602.9399525039
14	84125	32.3	1603.0369654382
14	84630	32.4	1603.1349646104
14	85135	32.5	1603.2333580852
14	85640	32.6	1603.3304969706
14	86145	32.7	1603.4265859611
14	86650	32.8	1603.5228600902
14	87155	32.9	1603.6176139209
14	87662	33	1603.7120135361
14	88167	33.1	1603.8090779549
14	88672	33.2	1603.9045269135
14	89177	33.3	1604.0008356776
14	89682	33.4	1604.0965477936
14	90187	33.5	1604.1924836477
14	90692	33.6	1604.2875540014
14	91197	33.7	1604.3823829647
14	91702	33.8	1604.479738648
14	92207	33.9	1604.5759943081
14	92714	34	1604.6715168394
14	93219	34.1	1604.7685531871
14	93724	34.2	1604.8665318368
14	94229	34.3	1604.9615902249
14	94734	34.4	1605.0581301711
14	95239	34.5	1605.1532969428
14	95744	34.6	1605.2513136771
14	96249	34.7	1605.3482336067
14	96754	34.8	1605.4421772771
14	97259	34.9	1605.5382165406
14	97766	35	1605.6334307399
14	98271	35.1	1605.7310841633
14	98776	35.2	1605.8270249628
14	99281	35.3	1605.9209476197
14	99786	35.4	1606.0180590283
14	100291	35.5	1606.1143993204
14	100796	35.6	1606.2097398872
14	101301	35.7	1606.3051058175
14	101806	35.8	1606.4002100369
14	102311	35.9	1606.4951618593
14	102818	36	1606.5892224424
14	103323	36.1	1606.6835919134
14	103945	36.2	1606.7806077134
14	104541	36.3	1606.8753415653
14	105163	36.4	1606.9705937766
14	105785	36.5	1607.0663132761
14	106407	36.6	1607.1635475717
14	107029	36.7	1607.261793402
14	107625	36.8	1607.3576932484
14	108221	36.9	1607.4536859374
14	108819	37	1607.5478029205
14	109441	37.1	1607.6464725835
14	110063	37.2	1607.7423933884
14	110685	37.3	1607.8400920453
14	111281	37.4	1607.9380056998
14	111877	37.5	1608.0364757385
14	112499	37.6	1608.1340482645
14	113121	37.7	1608.2302301619
14	113743	37.8	1608.3269343041
14	114365	37.9	1608.4254366932
14	114989	38	1608.5201958613
14	115611	38.1	1608.616646708
14	116233	38.2	1608.7154201474
14	116855	38.3	1608.8110316712
14	117477	38.4	1608.9084858838
14	118099	38.5	1609.0035596685
14	118695	38.6	1609.0985620404
13	248	1.2	2418.0143202209
13	303	1.3	2418.0143202209
13	358	1.4	2417.902894051
13	413	1.5	2417.7829840418
13	468	1.6	2417.6588954177
13	523	1.7	2417.5310246135
13	578	1.8	2417.405815211
13	633	1.9	2417.2788925468
13	690	2	2417.1522250801
13	745	2.1	2417.0278883213
13	800	2.2	2416.8979810979
13	855	2.3	2416.7681787784
13	910	2.4	2416.6379402993
13	965	2.5	2416.5129974701
13	1020	2.6	2416.3876996227
13	1075	2.7	2416.2630005357
13	1130	2.8	2416.1390093997
13	1185	2.9	2416.0138484527
13	1242	3	2415.8864863393
13	1297	3.1	2415.7612039563
13	1352	3.2	2415.6316046568
13	1407	3.3	2415.5054057178
13	1462	3.4	2415.375969895
13	1517	3.5	2415.2517574594
13	1572	3.6	2415.1247888618
13	1627	3.7	2414.9971215683
13	1682	3.8	2414.8684758047
13	1737	3.9	2414.7431523846
13	1794	4	2414.6157555338
13	1849	4.1	2414.4890906053
13	1904	4.2	2414.3588428139
13	1959	4.3	2414.2324986063
13	2014	4.4	2414.1061182877
13	2069	4.5	2413.9797695073
13	2124	4.6	2413.8555510691
13	2179	4.7	2413.729625251
13	2234	4.8	2413.6015984352
13	2289	4.9	2413.4740769609
13	2346	5	2413.3482542065
13	2401	5.1	2413.218276514
13	2456	5.2	2413.0922525689
13	2511	5.3	2412.9662538581
13	2566	5.4	2412.8372549667
13	2621	5.5	2412.7077251015
13	2676	5.6	2412.5794109525
13	2731	5.7	2412.4514115332
13	2786	5.8	2412.3247580957
13	2841	5.9	2412.1972468527
13	2898	6	2412.073319308
13	2953	6.1	2411.9436142155
13	3008	6.2	2411.8146055085
13	3063	6.3	2411.6852867338
13	3118	6.4	2411.5591737563
13	3173	6.5	2411.430454568
13	3228	6.6	2411.3031239482
13	3283	6.7	2411.1743469668
13	3338	6.8	2411.0450129391
13	3438	6.9	2410.9153621481
13	3540	7	2410.7892701685
13	3640	7.1	2410.6639735511
13	3740	7.2	2410.5360068182
13	3840	7.3	2410.4057250122
13	3940	7.4	2410.2808168945
13	4040	7.5	2410.1567822582
13	4140	7.6	2410.0294668945
13	4240	7.7	2409.8994597985
13	4397	7.8	2409.7739084252
13	4554	7.9	2409.6464174509
13	4713	8	2409.5183902216
13	4870	8.1	2409.392508996
13	5027	8.2	2409.2681242535
13	5184	8.3	2409.1414381718
13	5341	8.4	2409.0143856199
13	5498	8.5	2408.8900199254
13	5655	8.6	2408.7614599647
13	5812	8.7	2408.6365805101
13	5969	8.8	2408.511694824
13	6126	8.9	2408.383917751
13	6354	9	2408.2546226446
13	6580	9.1	2408.1252069543
13	6806	9.2	2407.9996290535
13	7032	9.3	2407.8741874724
13	7258	9.4	2407.7475474313
13	7484	9.5	2407.6216101098
13	7710	9.6	2407.5169807771
13	7936	9.7	2407.4214154105
13	8162	9.8	2407.3266767574
13	8388	9.9	2407.2319731931
13	8616	10	2407.1390631391
13	8843	10.1	2407.0445076124
13	9069	10.2	2406.948404389
13	9295	10.3	2406.8527006719
13	9521	10.4	2406.7557870885
13	9747	10.5	2406.6599398609
13	9973	10.6	2406.5655521245
13	10199	10.7	2406.4690570803
13	10425	10.8	2406.3736090217
13	10651	10.9	2406.2786544831
13	10879	11	2406.1855658627
13	11105	11.1	2406.0920950308
13	11331	11.2	2405.995313265
13	11557	11.3	2405.9015395173
13	11783	11.4	2405.8067414798
13	12009	11.5	2405.7139606697
13	12235	11.6	2405.6199088569
13	12461	11.7	2405.5224154559
13	12687	11.8	2405.426597166
13	12913	11.9	2405.3306785
13	13141	12	2405.234079704
13	13367	12.1	2405.1387662301
13	13593	12.2	2405.0457195604
13	13819	12.3	2404.9519682218
13	14045	12.4	2404.8572098376
13	14271	12.5	2404.7609392141
13	14497	12.6	2404.666242699
13	14723	12.7	2404.5713721719
13	14949	12.8	2404.4747060322
13	15175	12.9	2404.3793372242
13	15403	13	2404.2830036355
13	15629	13.1	2404.1878091377
13	15855	13.2	2404.0920775612
13	16081	13.3	2403.9986724627
13	16307	13.4	2403.903311401
13	16533	13.5	2403.8092236873
13	16759	13.6	2403.7148841401
13	16985	13.7	2403.618427914
13	17211	13.8	2403.522724205
13	17437	13.9	2403.4276852094
13	17665	14	2403.3314452218
13	17891	14.1	2403.2371876432
13	18117	14.2	2403.1406645218
13	18343	14.3	2403.0473847284
13	18569	14.4	2402.9523383636
13	18795	14.5	2402.8555136716
13	19021	14.6	2402.7602008049
13	19247	14.7	2402.6665662436
13	19473	14.8	2402.5715158704
13	19699	14.9	2402.4773782832
13	19927	15	2402.3806979309
13	20153	15.1	2402.283732433
13	20379	15.2	2402.189891721
13	20605	15.3	2402.0933780782
13	20831	15.4	2401.9986550526
13	21057	15.5	2401.9024803082
13	21283	15.6	2401.8049859395
13	21509	15.7	2401.71147558
13	21735	15.8	2401.6167619904
13	21961	15.9	2401.5220193088
13	22189	16	2401.4260945694
13	22415	16.1	2401.3328078099
13	22641	16.2	2401.2391323762
13	22867	16.3	2401.1439881417
13	23174	16.4	2401.0494280686
13	23481	16.5	2400.9560605176
13	23788	16.6	2400.8621624531
13	24095	16.7	2400.7665906076
13	24402	16.8	2400.6709730981
13	24709	16.9	2400.5753799245
13	25018	17	2400.4816540944
13	25325	17.1	2400.386028616
13	25632	17.2	2400.2929728309
13	25939	17.3	2400.1954663571
13	26246	17.4	2400.1021990649
13	26553	17.5	2400.0085783779
13	26860	17.6	2399.9150512558
13	27167	17.7	2399.8187263664
13	27474	17.8	2399.7235323413
13	27781	17.9	2399.6281142887
13	28090	18	2399.5345738386
13	28397	18.1	2399.440219468
13	28704	18.2	2399.3459691084
13	29011	18.3	2399.24844185
13	29318	18.4	2399.1546687899
13	29625	18.5	2399.0594888353
13	29932	18.6	2398.96429713
13	30239	18.7	2398.8690414127
13	30546	18.8	2398.7722468361
13	30853	18.9	2398.6773030361
13	31162	19	2398.5805084741
13	31469	19.1	2398.4833840618
13	31776	19.2	2398.389714365
13	32083	19.3	2398.2942196704
13	32390	19.4	2398.2001395052
13	32697	19.5	2398.1063067858
13	33004	19.6	2398.0098683485
13	33311	19.7	2397.9150152327
13	33618	19.8	2397.8216511596
13	33925	19.9	2397.7244913322
13	34234	20	2397.6315481703
13	34541	20.1	2397.5375238772
13	34848	20.2	2397.4405336846
13	35155	20.3	2397.3455539068
13	35462	20.4	2397.2512982343
13	35769	20.5	2397.1541726873
13	36076	20.6	2397.0577552665
13	36383	20.7	2396.9626838941
13	36690	20.8	2396.8652677591
13	36997	20.9	2396.7695287412
13	37306	21	2396.6731478042
13	37613	21.1	2396.577086015
13	37920	21.2	2396.4826339933
13	38227	21.3	2396.388971408
13	38534	21.4	2396.2932543575
13	38841	21.5	2396.1998459732
13	39148	21.6	2396.1062844913
13	39455	21.7	2396.0134369795
13	39762	21.8	2395.9194662857
13	40069	21.9	2395.8231467331
13	40378	22	2395.7299487683
13	40685	22.1	2395.6334878796
13	40992	22.2	2395.5376604636
13	41299	22.3	2395.4406412195
13	41606	22.4	2395.3448925321
13	41913	22.5	2395.251199204
13	42220	22.6	2395.157947047
13	42527	22.7	2395.0630819782
13	42834	22.8	2394.968042649
13	43521	22.9	2394.8711942221
13	43923	23	2394.7770790665
13	44323	23.1	2394.6816878496
13	44723	23.2	2394.585980941
13	45123	23.3	2394.4931854864
13	45523	23.4	2394.3975953027
13	45923	23.5	2394.3047535091
13	46323	23.6	2394.2086932479
13	46723	23.7	2394.1141710333
13	47123	23.8	2394.0168340557
13	47567	23.9	2393.9217596427
13	47969	24	2393.8272215616
13	48369	24.1	2393.7327646769
13	48769	24.2	2393.6365693668
13	49169	24.3	2393.5412401283
13	49569	24.4	2393.4441022235
13	49969	24.5	2393.3509486634
13	50369	24.6	2393.2539386236
13	50769	24.7	2393.1598970183
13	51169	24.8	2393.0652516433
13	51569	24.9	2392.9709326191
13	51971	25	2392.8749874179
13	52371	25.1	2392.7822484024
13	52771	25.2	2392.6857850543
13	53171	25.3	2392.5925043304
13	53571	25.4	2392.4991830101
13	53971	25.5	2392.4021984182
13	54371	25.6	2392.3091112624
13	54771	25.7	2392.2127395138
13	55171	25.8	2392.1194890273
13	55571	25.9	2392.0226261636
13	55973	26	2391.9284494923
13	56373	26.1	2391.8334002557
13	56773	26.2	2391.7402071317
13	57173	26.3	2391.6441965579
13	57573	26.4	2391.5484673883
13	57973	26.5	2391.4523230352
13	58373	26.6	2391.3570788174
13	58773	26.7	2391.2616148611
13	59173	26.8	2391.1687751098
13	59573	26.9	2391.0743830223
13	59975	27	2390.9816837017
13	60375	27.1	2390.8873878818
13	60775	27.2	2390.793543446
13	61175	27.3	2390.6997024673
13	61575	27.4	2390.60467462
13	61975	27.5	2390.5086862568
13	62375	27.6	2390.415249626
13	62775	27.7	2390.321485051
13	63175	27.8	2390.2271146884
13	63575	27.9	2390.1325609875
13	63977	28	2390.0391801227
13	64377	28.1	2389.9439461862
13	64777	28.2	2389.8505533397
13	65177	28.3	2389.7541265984
13	65577	28.4	2389.6600343472
13	65977	28.5	2389.5642881388
13	66377	28.6	2389.4699014773
13	66777	28.7	2389.3763924728
13	67177	28.8	2389.2789640678
13	67577	28.9	2389.1818053722
13	67979	29	2389.0847348114
13	68379	29.1	2388.9917327211
13	68779	29.2	2388.8950879207
13	69179	29.3	2388.8010286528
13	69579	29.4	2388.7038703372
13	69979	29.5	2388.6069997452
13	70484	29.6	2388.5102161614
13	70989	29.7	2388.4170192062
13	71494	29.8	2388.3209165569
13	71999	29.9	2388.2241245487
13	72506	30	2388.1298070294
13	73011	30.1	2388.0344567087
13	73516	30.2	2387.9375257043
13	74021	30.3	2387.8441071409
13	74526	30.4	2387.7501762268
13	75031	30.5	2387.655950275
13	75536	30.6	2387.5622918659
13	76041	30.7	2387.4692868401
13	76546	30.8	2387.3721704012
13	77051	30.9	2387.2763739905
13	77558	31	2387.1831908179
13	78063	31.1	2387.0889605501
13	78568	31.2	2386.9950284061
13	79073	31.3	2386.8984567836
13	79578	31.4	2386.8023498969
13	80083	31.5	2386.7085909726
13	80588	31.6	2386.615298754
13	81093	31.7	2386.5214919021
13	81598	31.8	2386.4272048456
13	82103	31.9	2386.3341548644
13	82610	32	2386.2392013659
13	83115	32.1	2386.1434468004
13	83620	32.2	2386.047009867
13	84125	32.3	2385.9512288902
13	84630	32.4	2385.8544741994
13	85135	32.5	2385.757330214
13	85640	32.6	2385.6614248849
13	86145	32.7	2385.5665561187
13	86650	32.8	2385.4715045656
13	87155	32.9	2385.3779540034
13	87662	33	2385.2847531596
13	88167	33.1	2385.1889213525
13	88672	33.2	2385.0946844904
13	89177	33.3	2384.9995987408
13	89682	33.4	2384.9051020638
13	90187	33.5	2384.8103844892
13	90692	33.6	2384.7165214245
13	91197	33.7	2384.6228966846
13	91702	33.8	2384.5267773108
13	92207	33.9	2384.4317439919
13	92714	34	2384.3374344916
13	93219	34.1	2384.2416303984
13	93724	34.2	2384.1448959699
13	94229	34.3	2384.0510447187
13	94734	34.4	2383.955730723
13	95239	34.5	2383.8617724651
13	95744	34.6	2383.7650004346
13	96249	34.7	2383.6693112814
13	96754	34.8	2383.5765605927
13	97259	34.9	2383.4817409219
13	97766	35	2383.3877358382
13	98271	35.1	2383.2913225057
13	98776	35.2	2383.1966000485
13	99281	35.3	2383.1038701057
13	99786	35.4	2383.0079919046
13	100291	35.5	2382.912875028
13	100796	35.6	2382.818745182
13	101301	35.7	2382.7245902939
13	101806	35.8	2382.6306937928
13	102311	35.9	2382.5369477541
13	102818	36	2382.4440816366
13	103323	36.1	2382.3509105541
13	103945	36.2	2382.2551267479
13	104541	36.3	2382.1615959114
13	105163	36.4	2382.067553299
13	105785	36.5	2381.9730493313
13	106407	36.6	2381.877049804
13	107029	36.7	2381.7800515875
13	107625	36.8	2381.6853695636
13	108221	36.9	2381.5905958766
13	108819	37	2381.4976740748
13	109441	37.1	2381.4002574078
13	110063	37.2	2381.3055546919
13	110685	37.3	2381.2090967002
13	111281	37.4	2381.1124264409
13	111877	37.5	2381.0152068639
13	112499	37.6	2380.9188734016
13	113121	37.7	2380.8239129081
13	113743	37.8	2380.7284368019
13	114365	37.9	2380.6311852844
13	114989	38	2380.537629453
13	115611	38.1	2380.4424034266
13	116233	38.2	2380.344884301
13	116855	38.3	2380.2504869376
13	117477	38.4	2380.1542702862
13	118099	38.5	2380.0604038339
13	118695	38.6	2379.9666078876
31	4554	7.9	1.1451174957344
31	4713	8	1.1586802272424
31	4870	8.1	1.1814655024854
31	5027	8.2	1.1760116414054
31	5184	8.3	1.1802716428193
31	5341	8.4	1.2199096205037
31	5498	8.5	1.2042274397034
31	5655	8.6	1.1811228879414
31	5812	8.7	1.2327922455208
31	5969	8.8	1.1857933561413
31	6126	8.9	1.2132699807537
31	6354	9	1.1924324041333
31	6580	9.1	1.1865944305662
31	6806	9.2	1.2685188186259
31	7032	9.3	1.2152868165418
31	7258	9.4	1.1855566462126
31	7484	9.5	1.2312254198355
31	7710	9.6	1.1796026368154
31	7936	9.7	1.1808304513271
31	8162	9.8	1.241527799486
31	8388	9.9	1.1974052046068
31	8616	10	1.2407948840793
31	8843	10.1	1.1670107257982
31	9069	10.2	1.1888219085735
31	9295	10.3	1.2732069282781
31	9521	10.4	1.1824474790248
31	9747	10.5	1.1774951835204
31	9973	10.6	1.2668399027425
31	10199	10.7	0.973
31	10425	10.8	1.2711370831153
31	10651	10.9	1.1620684552338
31	10879	11	1.1795801514088
31	11105	11.1	1.2557569497564
31	11331	11.2	1.1425618548633
31	11557	11.3	1.2704039720534
31	11783	11.4	1.2179357789548
31	12009	11.5	0.973
31	12235	11.6	1.3338575694939
31	12461	11.7	0.973
31	12687	11.8	1.2370662797149
31	12913	11.9	1.2936056202651
31	13141	12	0.973
31	13367	12.1	1.2285402763056
31	13593	12.2	1.2135177666861
31	13819	12.3	1.2547250212025
31	14045	12.4	0.973
31	14271	12.5	1.1792889096277
31	14497	12.6	1.2911932043504
31	14723	12.7	0.973
31	14949	12.8	1.1932300259499
31	15175	12.9	1.3769899675363
31	15403	13	0.973
31	15629	13.1	1.3329404060821
31	15855	13.2	0.973
31	16081	13.3	1.2569459701829
31	16307	13.4	1.1656050248447
31	16533	13.5	1.2131257940476
31	16759	13.6	0.973
31	16985	13.7	1.2492248974286
31	17211	13.8	1.3192651704747
31	17437	13.9	0.973
31	17665	14	1.2669083335483
31	17891	14.1	0.973
31	18117	14.2	1.3239549459033
31	18343	14.3	1.2755462207333
31	18569	14.4	0.973
31	18795	14.5	1.289292041096
31	19021	14.6	0.973
31	19247	14.7	1.2876187497278
31	19473	14.8	0.973
31	19699	14.9	1.248369927301
31	19927	15	0.973
31	20153	15.1	1.1756713464138
31	20379	15.2	1.1645660645758
31	20605	15.3	1.1580979434436
31	20831	15.4	1.2587044670898
31	21057	15.5	0.973
31	21283	15.6	1.1576665956665
31	21509	15.7	1.3898470448084
31	21735	15.8	0.973
31	21961	15.9	0.973
31	22189	16	1.3138772053036
31	22415	16.1	0.973
31	22641	16.2	0.973
31	22867	16.3	1.381938303322
31	23174	16.4	0.973
31	23481	16.5	1.3804134155249
31	23788	16.6	0.973
31	24095	16.7	1.2651991659584
31	24402	16.8	0.973
31	24709	16.9	1.197907990072
31	25018	17	1.1948498037826
31	25325	17.1	1.2019530994836
31	25632	17.2	0.973
31	25939	17.3	1.2449707129748
31	26246	17.4	0.973
31	26553	17.5	1.1782792263209
31	26860	17.6	0.973
31	27167	17.7	1.2343814526469
31	27474	17.8	0.973
31	27781	17.9	1.2365976633891
31	28090	18	1.2695246844576
31	28397	18.1	1.151392347488
31	28704	18.2	0.973
31	29011	18.3	1.171722540421
31	29318	18.4	1.2850692684968
31	29625	18.5	1.1941151724125
31	29932	18.6	0.973
31	30239	18.7	1.3402109101051
31	30546	18.8	0.973
31	30853	18.9	1.235710748907
31	31162	19	0.973
31	31469	19.1	1.1801814372962
31	31776	19.2	1.2624589451378
31	32083	19.3	1.2717331790694
31	32390	19.4	1.1711951813263
31	32697	19.5	0.973
31	33004	19.6	1.2549124030348
31	33311	19.7	1.1635182100265
31	33618	19.8	1.1674536933147
31	33925	19.9	0.973
31	34234	20	1.2408703146767
31	34541	20.1	1.2044321799449
31	34848	20.2	0.973
31	35155	20.3	1.2487721265969
31	35462	20.4	1.3052899561284
31	35769	20.5	0.973
31	36076	20.6	1.2212134323131
31	36383	20.7	1.2010562822258
31	36690	20.8	1.1985995359688
31	36997	20.9	1.2025989754251
31	37306	21	0.973
31	37613	21.1	1.3001772197454
31	37920	21.2	1.22956566292
31	38227	21.3	0.973
31	38534	21.4	1.2064456061835
31	38841	21.5	0.973
31	39148	21.6	1.2501094814203
31	39455	21.7	1.1452429039763
31	39762	21.8	1.2115450386316
31	40069	21.9	1.202075717719
31	40378	22	0.973
31	40685	22.1	1.2041980202547
31	40992	22.2	0.973
31	41299	22.3	1.2370870666489
31	41606	22.4	1.1584519925077
31	41913	22.5	1.2192426029193
31	42220	22.6	1.1766506949249
31	42527	22.7	0.973
31	42834	22.8	1.2216958292307
31	43521	22.9	0.973
31	43923	23	1.2060774877584
31	44323	23.1	0.973
31	44723	23.2	1.3311464110373
31	45123	23.3	0.973
31	45523	23.4	1.2781996888602
31	45923	23.5	0.973
31	46323	23.6	1.1860953411479
31	46723	23.7	1.1978811292273
31	47123	23.8	0.973
31	47567	23.9	1.1617832233897
31	47969	24	1.1843594108166
31	48369	24.1	1.3035412407025
31	48769	24.2	1.1629583408358
31	49169	24.3	0.973
31	49569	24.4	1.2609981636267
31	49969	24.5	0.973
31	50369	24.6	1.2406565000536
31	50769	24.7	0.973
31	51169	24.8	1.2018394536676
31	51569	24.9	0.973
31	51971	25	1.3083294700217
31	52371	25.1	1.1500930595833
31	52771	25.2	1.1739097362433
31	53171	25.3	1.1481480414435
31	53571	25.4	0.973
31	53971	25.5	1.3123157938351
31	54371	25.6	0.973
31	54771	25.7	1.1576707134254
31	55171	25.8	1.2191269623854
31	55571	25.9	1.1855343639259
31	55973	26	0.973
31	56373	26.1	1.1675143048679
31	56773	26.2	1.3344503369941
31	57173	26.3	0.973
31	57573	26.4	1.4084113221219
31	57973	26.5	0.973
31	58373	26.6	0.973
31	58773	26.7	1.3678222079315
31	59173	26.8	0.973
31	59573	26.9	1.2819310894717
31	59975	27	1.1773590276555
31	60375	27.1	0.973
31	60775	27.2	1.3715015851552
31	61175	27.3	0.973
31	61575	27.4	1.1857520614626
31	61975	27.5	0.973
31	62375	27.6	1.3456155681402
31	62775	27.7	0.973
31	63175	27.8	1.2671208022665
31	63575	27.9	1.2584776191335
31	63977	28	0.973
31	64377	28.1	1.278368460457
31	64777	28.2	1.212767254521
31	65177	28.3	0.973
31	65577	28.4	1.1797154399061
31	65977	28.5	1.1494520595563
31	66377	28.6	1.1660729148852
31	66777	28.7	1.1945036963552
31	67177	28.8	1.1857635710828
31	67577	28.9	0.973
31	67979	29	1.159723060832
31	68379	29.1	1.4098578129412
31	68779	29.2	0.973
31	69179	29.3	1.2761062676894
31	69579	29.4	0.973
31	69979	29.5	1.1649765402759
31	70484	29.6	1.2281237163866
31	70989	29.7	1.237644518956
31	71494	29.8	0.973
31	71999	29.9	1.2128498131728
31	72506	30	0.973
31	73011	30.1	1.2801328799773
31	73516	30.2	0.973
31	74021	30.3	0.973
31	74526	30.4	0.973
31	75031	30.5	1.1988239068475
31	75536	30.6	1.2071548659833
31	76041	30.7	0.973
31	76546	30.8	1.2448263080911
31	77051	30.9	1.2358688328129
31	77558	31	1.2162678217897
31	78063	31.1	0.973
31	78568	31.2	1.2071176237585
31	79073	31.3	1.2819073464863
31	79578	31.4	0.973
31	80083	31.5	1.1524597448907
31	80588	31.6	0.973
31	81093	31.7	1.2457920360777
31	81598	31.8	0.973
31	82103	31.9	1.2255003712584
31	82610	32	0.973
31	83115	32.1	1.3393898734085
31	83620	32.2	0.973
31	84125	32.3	1.3059854492257
31	84630	32.4	0.973
31	85135	32.5	1.1616599599215
31	85640	32.6	1.3302680294257
31	86145	32.7	0.973
31	86650	32.8	1.2194336669192
31	87155	32.9	1.1969041984065
31	87662	33	0.973
31	88167	33.1	1.3886345642162
31	88672	33.2	1.1472446145303
31	89177	33.3	0.973
31	89682	33.4	1.2771061084079
31	90187	33.5	1.1522295191779
31	90692	33.6	1.1800911529086
31	91197	33.7	0.973
31	91702	33.8	1.2916551022711
31	92207	33.9	0.973
31	92714	34	1.3843471941386
31	93219	34.1	1.1729123224079
31	93724	34.2	0.973
31	94229	34.3	1.2007721058567
31	94734	34.4	0.973
31	95239	34.5	1.2286771074383
31	95744	34.6	1.1508678996173
31	96249	34.7	1.2162917742403
31	96754	34.8	1.2988608060265
31	97259	34.9	0.973
31	97766	35	0.973
31	98271	35.1	1.1419999556855
31	98776	35.2	1.3388395042096
31	99281	35.3	1.1594477378599
31	99786	35.4	1.1498769633416
31	100291	35.5	1.1672955003321
31	100796	35.6	1.1691652572341
31	101301	35.7	0.973
31	101806	35.8	1.172413012154
31	102311	35.9	1.2068214978693
31	102818	36	1.1933061215171
31	103323	36.1	0.973
31	103945	36.2	1.1639294523702
31	104541	36.3	1.2619051164436
31	105163	36.4	1.1821767238271
31	105785	36.5	1.2141901747299
31	106407	36.6	1.2532016359719
31	107029	36.7	1.1596327896134
31	107625	36.8	0.973
31	108221	36.9	0.973
31	108819	37	1.1797782862597
31	109441	37.1	1.1749304787459
31	110063	37.2	1.3274123402579
31	110685	37.3	0.973
31	111281	37.4	1.2952115008025
31	111877	37.5	1.2339442430617
31	112499	37.6	0.973
31	113121	37.7	1.1581563963578
31	113743	37.8	1.3325909670463
31	114365	37.9	0.973
31	114989	38	1.2044894262749
31	115611	38.1	0.973
31	116233	38.2	1.1497229672368
31	116855	38.3	1.2752420286334
31	117477	38.4	0.973
31	118099	38.5	1.2421990787574
31	118695	38.6	0.973
30	4554	7.9	0.82237580315957
30	4713	8	0.73496995826889
30	4870	8.1	0.80120890955831
30	5027	8.2	0.57448010618755
30	5184	8.3	0.51891419356704
30	5341	8.4	0.74912679358985
30	5498	8.5	0.53243412745063
30	5655	8.6	0.32134713557406
30	5812	8.7	0.61232342148395
30	5969	8.8	0.27983936504585
30	6126	8.9	0.41491290501162
30	6354	9	0.27227392609741
30	6580	9.1	0.22551632445582
30	6806	9.2	0.61400208659207
30	7032	9.3	0.31988460531064
30	7258	9.4	0.16572191393015
30	7484	9.5	0.36311913530687
30	7710	9.6	0.11885817900801
30	7936	9.7	0.12021989690791
30	8162	9.8	0.37180067623719
30	8388	9.9	0.17302021049422
30	8616	10	0.33954269484412
30	8843	10.1	0.034065277232231
30	9069	10.2	0.12000195091909
30	9295	10.3	0.43595886050445
30	9521	10.4	0.07985650528856
30	9747	10.5	0.059243721416915
30	9973	10.6	0.38249168250819
30	10199	10.7	-0.31057480213848
30	10425	10.8	0.39401544008737
30	10651	10.9	-0.0083517271796119
30	10879	11	0.055064061781871
30	11105	11.1	0.32022404435653
30	11331	11.2	-0.083463029540336
30	11557	11.3	0.35924442693859
30	11783	11.4	0.1707327593136
30	12009	11.5	-0.28081496327176
30	12235	11.6	0.55266002724854
30	12461	11.7	-0.3368462822599
30	12687	11.8	0.23062840352479
30	12913	11.9	0.40265209660022
30	13141	12	-0.43988800663476
30	13367	12.1	0.19649315638581
30	13593	12.2	0.14219810385045
30	13819	12.3	0.26862752319941
30	14045	12.4	-0.30964439097323
30	14271	12.5	0.029015615776102
30	14497	12.6	0.38227069876593
30	14723	12.7	-0.41583668584499
30	14949	12.8	0.074347683734166
30	15175	12.9	0.63895851252627
30	15403	13	-0.46729568001066
30	15629	13.1	0.49873441302495
30	15855	13.2	-0.40554458620288
30	16081	13.3	0.26522897380164
30	16307	13.4	-0.024137841145337
30	16533	13.5	0.1237678027341
30	16759	13.6	-0.40826769401036
30	16985	13.7	0.24297489531107
30	17211	13.8	0.4441786453886
30	17437	13.9	-0.53683262140818
30	17665	14	0.29178635208953
30	17891	14.1	-0.3726185741595
30	18117	14.2	0.46615699897784
30	18343	14.3	0.3036989512603
30	18569	14.4	-0.53592513062773
30	18795	14.5	0.3530549723075
30	19021	14.6	-0.25710130127481
30	19247	14.7	0.34433530796531
30	19473	14.8	-0.16074147356445
30	19699	14.9	0.22194031638855
30	19927	15	-0.3701875826875
30	20153	15.1	0.0053746900867457
30	20379	15.2	-0.029114945742836
30	20605	15.3	-0.048901495603766
30	20831	15.4	0.25974823370741
30	21057	15.5	-0.19883233374801
30	21283	15.6	-0.0503856416108
30	21509	15.7	0.64126629594762
30	21735	15.8	-0.45746160741046
30	21961	15.9	-0.20732793004928
30	22189	16	0.42359447005953
30	22415	16.1	-0.16928681924748
30	22641	16.2	-0.11011592511925
30	22867	16.3	0.61206342704723
30	23174	16.4	-0.60075148342334
30	23481	16.5	0.60713256066252
30	23788	16.6	-0.34656165738155
30	24095	16.7	0.26558326089708
30	24402	16.8	-0.3693156882983
30	24709	16.9	0.069229755800415
30	25018	17	0.058699255992241
30	25325	17.1	0.078796527202194
30	25632	17.2	-0.13592072392609
30	25939	17.3	0.20748516490434
30	26246	17.4	-0.12528752169086
30	26553	17.5	0.0075030922836028
30	26860	17.6	-0.23205471057786
30	27167	17.7	0.18017771875867
30	27474	17.8	-0.26919444562894
30	27781	17.9	0.18927739145416
30	28090	18	0.28068106650329
30	28397	18.1	-0.075239778854876
30	28704	18.2	-0.45315618150215
30	29011	18.3	-0.006956325735874
30	29318	18.4	0.33542825204884
30	29625	18.5	0.055742650224586
30	29932	18.6	-0.30384154200681
30	30239	18.7	0.49185411884344
30	30546	18.8	-0.167105679947
30	30853	18.9	0.17711750611673
30	31162	19	-0.54652048219847
30	31469	19.1	0.018590263357281
30	31776	19.2	0.26643254183867
30	32083	19.3	0.28462122824467
30	32390	19.4	-0.016964143626665
30	32697	19.5	-0.28919283079164
30	33004	19.6	0.23634145569255
30	33311	19.7	-0.038952028402306
30	33618	19.8	-0.026702123145139
30	33925	19.9	-0.51842689543095
30	34234	20	0.20519965334286
30	34541	20.1	0.090171508024204
30	34848	20.2	-0.22452097169844
30	35155	20.3	0.22675251900461
30	35462	20.4	0.38417482476992
30	35769	20.5	-0.5956683192823
30	36076	20.6	0.14357710252004
30	36383	20.7	0.079478625237146
30	36690	20.8	0.070488348192002
30	36997	20.9	0.081042740041288
30	37306	21	-0.37361909262014
30	37613	21.1	0.3779390873564
30	37920	21.2	0.15882072642107
30	38227	21.3	-0.3434238860474
30	38534	21.4	0.094620120782767
30	38841	21.5	-0.16704764048983
30	39148	21.6	0.22651430945583
30	39455	21.7	-0.092623723837255
30	39762	21.8	0.10851435973395
30	40069	21.9	0.078055937252599
30	40378	22	-0.17104829199099
30	40685	22.1	0.086271594849425
30	40992	22.2	-0.2344908667065
30	41299	22.3	0.18786508149163
30	41606	22.4	-0.052088741997387
30	41913	22.5	0.1313331313922
30	42220	22.6	0.0017821506166316
30	42527	22.7	-0.14111029767015
30	42834	22.8	0.13880656643361
30	43521	22.9	-0.35376176825014
30	43923	23	0.096940495969191
30	44323	23.1	-0.19156297194774
30	44723	23.2	0.47057035178499
30	45123	23.3	-0.19383558734525
30	45523	23.4	0.3056552685966
30	45923	23.5	-0.21481540608379
30	46323	23.6	0.031385888507058
30	46723	23.7	0.066054873248993
30	47123	23.8	-0.27083929898988
30	47567	23.9	-0.039898069181532
30	47969	24	0.029755505759679
30	48369	24.1	0.38264094521391
30	48769	24.2	-0.040742522518165
30	49169	24.3	-0.19816119310722
30	49569	24.4	0.25387590096577
30	49969	24.5	-0.40541728309761
30	50369	24.6	0.19862972148284
30	50769	24.7	-0.23106656859025
30	51169	24.8	0.08305277649864
30	51569	24.9	-0.21205049826382
30	51971	25	0.40360580571565
30	52371	25.1	-0.077966066620965
30	52771	25.2	-0.0048865911526286
30	53171	25.3	-0.083153694387543
30	53571	25.4	-0.13890996947602
30	53971	25.5	0.41097769203988
30	54371	25.6	-0.23789537174013
30	54771	25.7	-0.053557234456125
30	55171	25.8	0.13301818130163
30	55571	25.9	0.029728351599874
30	55973	26	-0.17643606282393
30	56373	26.1	-0.022655031137881
30	56773	26.2	0.47089737438615
30	57173	26.3	-0.81309416087561
30	57573	26.4	0.6996504650801
30	57973	26.5	-0.14975224622096
30	58373	26.6	-0.40392610783832
30	58773	26.7	0.57590330745134
30	59173	26.8	-0.52114080720361
30	59573	26.9	0.32463941087601
30	59975	27	0.0049368479310119
30	60375	27.1	-0.30598089988364
30	60775	27.2	0.58216836082097
30	61175	27.3	-0.52689764964066
30	61575	27.4	0.034350557674572
30	61975	27.5	-0.13260598935005
30	62375	27.6	0.51054856192809
30	62775	27.7	-0.48689422955612
30	63175	27.8	0.28078027502738
30	63575	27.9	0.24613060729793
30	63977	28	-0.37279855441736
30	64377	28.1	0.30840279911884
30	64777	28.2	0.10753935037954
30	65177	28.3	-0.4822173803874
30	65577	28.4	0.015695923597374
30	65977	28.5	-0.077582607309623
30	66377	28.6	-0.025317149667934
30	66777	28.7	0.062432017054512
30	67177	28.8	0.034586521693789
30	67577	28.9	-0.12864338246447
30	67979	29	-0.04428959763519
30	68379	29.1	0.69579416140944
30	68779	29.2	-0.44138462162241
30	69179	29.3	0.30091687906741
30	69579	29.4	-0.20303006102848
30	69979	29.5	-0.031890739208191
30	70484	29.6	0.15798021599444
30	70989	29.7	0.18179170664451
30	71494	29.8	-0.1943030753561
30	71999	29.9	0.10936756055647
30	72506	30	-0.31795299561719
30	73011	30.1	0.31253769131842
30	73516	30.2	-0.14310403896031
30	74021	30.3	-0.14055749264752
30	74526	30.4	-0.255425825728
30	75031	30.5	0.076542146750846
30	75536	30.6	0.10027576005617
30	76041	30.7	-0.1780302281582
30	76546	30.8	0.21585601126491
30	77051	30.9	0.18292247275693
30	77558	31	0.12030310932055
30	78063	31.1	-0.34484895259783
30	78568	31.2	0.098046267742211
30	79073	31.3	0.31608060144306
30	79578	31.4	-0.13758560420484
30	80083	31.5	-0.071222682808452
30	80588	31.6	-0.17294024553147
30	81093	31.7	0.21255858507065
30	81598	31.8	-0.24733093923134
30	82103	31.9	0.15323266442622
30	82610	32	-0.22643011646282
30	83115	32.1	0.48898436506956
30	83620	32.2	-0.41240306327759
30	84125	32.3	0.38950432062141
30	84630	32.4	-0.34952259994783
30	85135	32.5	-0.040691946945604
30	85640	32.6	0.45933408961977
30	86145	32.7	-0.55754044609466
30	86650	32.8	0.13742769694485
30	87155	32.9	0.066453726894591
30	87662	33	-0.32204168617897
30	88167	33.1	0.63664962078498
30	88672	33.2	-0.088213695694939
30	89177	33.3	-0.30880250222031
30	89682	33.4	0.30479491633625
30	90187	33.5	-0.072409459910023
30	90692	33.6	0.012159334272439
30	91197	33.7	-0.4833549910285
30	91702	33.8	0.35644823917393
30	92207	33.9	-0.36593875393765
30	92714	34	0.62498104668858
30	93219	34.1	-0.011350186539503
30	93724	34.2	-0.187471074404
30	94229	34.3	0.074852582626057
30	94734	34.4	-0.45802649394576
30	95239	34.5	0.16748271971733
30	95744	34.6	-0.073304095304505
30	96249	34.7	0.12770040763844
30	96754	34.8	0.36734032047234
30	97259	34.9	-0.1382820767436
30	97766	35	-0.30829488076349
30	98271	35.1	-0.1005806658069
30	98776	35.2	0.49047392135535
30	99281	35.3	-0.050937558649569
30	99786	35.4	-0.079247432388723
30	100291	35.5	-0.025784946109528
30	100796	35.6	-0.019805049507391
30	101301	35.7	-0.10844676956791
30	101806	35.8	-0.0081962993605478
30	102311	35.9	0.095892054264999
30	102818	36	0.053457210921772
30	103323	36.1	-0.3612656193934
30	103945	36.2	-0.031291736249701
30	104541	36.3	0.26721767551585
30	105163	36.4	0.021191855420151
30	105785	36.5	0.11691576935992
30	106407	36.6	0.22866066809989
30	107029	36.7	-0.051455255205921
30	107625	36.8	-0.17589325035183
30	108221	36.9	-0.3021260459642
30	108819	37	0.016527678025655
30	109441	37.1	0.0014042939137804
30	110063	37.2	0.45399993552154
30	110685	37.3	-0.72164583324351
30	111281	37.4	0.37158761881734
30	111877	37.5	0.17721588719514
30	112499	37.6	-0.13571485807064
30	113121	37.7	-0.051900477131295
30	113743	37.8	0.46455902406948
30	114365	37.9	-0.16413537262331
30	114989	38	0.08324807879742
30	115611	38.1	-0.34640248345614
30	116233	38.2	-0.077611631037098
30	116855	38.3	0.30051247691687
30	117477	38.4	-0.19052469237513
30	118099	38.5	0.19997205556803
30	118695	38.6	-0.14472010546662
29	4397	7.8	0.060264803255918
29	4554	7.9	0.14250238357188
29	4713	8	0.21599937939876
29	4870	8.1	0.2961202703546
29	5027	8.2	0.35356828097335
29	5184	8.3	0.40545970033006
29	5341	8.4	0.48037237968904
29	5498	8.5	0.5336157924341
29	5655	8.6	0.56575050599151
29	5812	8.7	0.6269828481399
29	5969	8.8	0.65496678464449
29	6126	8.9	0.69645807514565
29	6354	9	0.72368546775539
29	6580	9.1	0.74623710020097
29	6806	9.2	0.80763730886018
29	7032	9.3	0.83962576939124
29	7258	9.4	0.85619796078426
29	7484	9.5	0.89250987431495
29	7710	9.6	0.90439569221575
29	7936	9.7	0.91641768190654
29	8162	9.8	0.95359774953026
29	8388	9.9	0.97089977057968
29	8616	10	1.0048540400641
29	8843	10.1	1.0082605677873
29	9069	10.2	1.0202607628792
29	9295	10.3	1.0638566489297
29	9521	10.4	1.0718422994585
29	9747	10.5	1.0777666716002
29	9973	10.6	1.116015839851
29	10199	10.7	1.0849583596372
29	10425	10.8	1.1243599036459
29	10651	10.9	1.123524730928
[...]
22	97766	35	1.3238948290834
22	98271	35.1	1.3640025139095
22	98776	35.2	1.3676331174112
22	99281	35.3	1.3778041398404
22	99786	35.4	1.3396577117893
22	100291	35.5	1.3730748867949
22	100796	35.6	1.3707311543786
22	101301	35.7	1.321936732062
22	101806	35.8	1.3737287426559
22	102311	35.9	1.3448228220917
22	102818	36	1.3238863289021
22	103323	36.1	1.3064803588061
22	103945	36.2	1.3652745891175
22	104541	36.3	1.3287353043223
22	105163	36.4	1.3221337263131
22	105785	36.5	1.3782316121596
22	106407	36.6	1.3503987214195
22	107029	36.7	1.3276583835422
22	107625	36.8	1.3248633409421
22	108221	36.9	1.3723697438714
22	108819	37	1.378540034864
22	109441	37.1	1.3771516921795
22	110063	37.2	1.3167103772222
22	110685	37.3	1.3760332905909
22	111281	37.4	1.3271708732212
22	111877	37.5	1.3346283570357
22	112499	37.6	1.3768183375835
22	113121	37.7	1.3786370704261
22	113743	37.8	1.3742167550959
22	114365	37.9	1.3676685236287
22	114989	38	1.3471543907531
22	115611	38.1	1.3522951853164
22	116233	38.2	1.3406597715705
22	116855	38.3	1.3783889299434
22	117477	38.4	1.3280326606119
22	118099	38.5	1.3554292701574
22	118695	38.6	1.3853726449518
21	3338	6.8	1578.9478335427
21	3438	6.9	1578.9478335427
21	3540	7	1578.9548274176
21	3640	7.1	1578.9653908126
21	3740	7.2	1578.9790762616
21	3840	7.3	1578.9965162314
21	3940	7.4	1579.0163454674
21	4040	7.5	1579.0376610644
21	4140	7.6	1579.0615894487
21	4240	7.7	1579.0876445193
21	4397	7.8	1579.1167237666
21	4554	7.9	1579.1465446772
21	4713	8	1579.1779441135
21	4870	8.1	1579.2106374595
21	5027	8.2	1579.2447055075
21	5184	8.3	1579.2787656486
21	5341	8.4	1579.3140499601
21	5498	8.5	1579.3501905818
21	5655	8.6	1579.387419425
21	5812	8.7	1579.4261384839
21	5969	8.8	1579.4648589846
21	6126	8.9	1579.5035735024
21	6354	9	1579.5426605698
21	6580	9.1	1579.5828658119
21	6806	9.2	1579.6244929293
21	7032	9.3	1579.6655672379
21	7258	9.4	1579.7069030702
21	7484	9.5	1579.7491409443
21	7710	9.6	1579.7923827842
21	7936	9.7	1579.8352488279
21	8162	9.8	1579.8787687588
21	8388	9.9	1579.9215219282
21	8616	10	1579.9656751677
21	8843	10.1	1580.0089622736
21	9069	10.2	1580.0523836259
21	9295	10.3	1580.0964994458
21	9521	10.4	1580.1419743206
21	9747	10.5	1580.186645437
21	9973	10.6	1580.23050847
21	10199	10.7	1580.2745797746
21	10425	10.8	1580.3189275647
21	10651	10.9	1580.3639984177
21	10879	11	1580.4099500626
21	11105	11.1	1580.4562107073
21	11331	11.2	1580.5016329587
21	11557	11.3	1580.5467247553
21	11783	11.4	1580.5932553094
21	12009	11.5	1580.6385528091
21	12235	11.6	1580.6852334104
21	12461	11.7	1580.7300820937
21	12687	11.8	1580.7752853138
21	12913	11.9	1580.8214427792
21	13141	12	1580.868489556
21	13367	12.1	1580.9155333051
21	13593	12.2	1580.961500694
21	13819	12.3	1581.0083079813
21	14045	12.4	1581.0538452566
21	14271	12.5	1581.0997280739
21	14497	12.6	1581.1620996799
21	14723	12.7	1581.2581781605
21	14949	12.8	1581.3551662443
21	15175	12.9	1581.451300676
21	15403	13	1581.5491649443
21	15629	13.1	1581.6461160602
21	15855	13.2	1581.7412633104
21	16081	13.3	1581.8393768063
21	16307	13.4	1581.9338107537
21	16533	13.5	1582.0271993335
21	16759	13.6	1582.1209124001
21	16985	13.7	1582.2155259773
21	17211	13.8	1582.3113635667
21	17437	13.9	1582.4071957376
21	17665	14	1582.503915064
21	17891	14.1	1582.598351676
21	18117	14.2	1582.6932766959
21	18343	14.3	1582.7915377002
21	18569	14.4	1582.8878094852
21	18795	14.5	1582.984598062
21	19021	14.6	1583.0829327162
21	19247	14.7	1583.1775715956
21	19473	14.8	1583.2748344569
21	19699	14.9	1583.3716671504
21	19927	15	1583.4691744177
21	20153	15.1	1583.5665004412
21	20379	15.2	1583.6620172244
21	20605	15.3	1583.7601405345
21	20831	15.4	1583.8589673182
21	21057	15.5	1583.9562036917
21	21283	15.6	1584.0522247767
21	21509	15.7	1584.1476104064
21	21735	15.8	1584.2451208411
21	21961	15.9	1584.3387782946
21	22189	16	1584.4363529114
21	22415	16.1	1584.5305475025
21	22641	16.2	1584.6265707212
21	22867	16.3	1584.7235173844
21	23174	16.4	1584.8183010668
21	23481	16.5	1584.9161288878
21	23788	16.6	1585.0118099526
21	24095	16.7	1585.1092977626
21	24402	16.8	1585.2052059853
21	24709	16.9	1585.2994668251
21	25018	17	1585.3936918592
21	25325	17.1	1585.4916965207
21	25632	17.2	1585.5897151921
21	25939	17.3	1585.6875804355
21	26246	17.4	1585.7860783916
21	26553	17.5	1585.8825925607
21	26860	17.6	1585.9760295004
21	27167	17.7	1586.0731100161
21	27474	17.8	1586.1701331558
21	27781	17.9	1586.2647253266
21	28090	18	1586.3620468369
21	28397	18.1	1586.4563181996
21	28704	18.2	1586.5529502053
21	29011	18.3	1586.6494119084
21	29318	18.4	1586.7458366649
21	29625	18.5	1586.843249023
21	29932	18.6	1586.9383769212
21	30239	18.7	1587.0362619851
21	30546	18.8	1587.1316010365
21	30853	18.9	1587.229499002
21	31162	19	1587.3265492842
21	31469	19.1	1587.4227751568
21	31776	19.2	1587.5179186566
21	32083	19.3	1587.6125192847
21	32390	19.4	1587.7072724774
21	32697	19.5	1587.8047334626
21	33004	19.6	1587.9005128248
21	33311	19.7	1587.9969577072
21	33618	19.8	1588.0912257126
21	33925	19.9	1588.1885359921
21	34234	20	1588.2871744521
21	34541	20.1	1588.3807891132
21	34848	20.2	1588.4771047523
21	35155	20.3	1588.5750247035
21	35462	20.4	1588.6727686515
21	35769	20.5	1588.7684793575
21	36076	20.6	1588.8642096156
21	36383	20.7	1588.9608398592
21	36690	20.8	1589.0581585662
21	36997	20.9	1589.1571577843
21	37306	21	1589.2508698143
21	37613	21.1	1589.349024971
21	37920	21.2	1589.4429571396
21	38227	21.3	1589.5401436947
21	38534	21.4	1589.6372412695
21	38841	21.5	1589.7338325847
21	39148	21.6	1589.8284702487
21	39455	21.7	1589.9225413278
21	39762	21.8	1590.0194248501
21	40069	21.9	1590.1126602115
21	40378	22	1590.2100752611
21	40685	22.1	1590.3076036228
21	40992	22.2	1590.4028951954
21	41299	22.3	1590.4972280255
21	41606	22.4	1590.5946349064
21	41913	22.5	1590.6927195974
21	42220	22.6	1590.7868938539
21	42527	22.7	1590.8805147558
21	42834	22.8	1590.9745691689
21	43521	22.9	1591.0686869528
21	43923	23	1591.1679672245
21	44323	23.1	1591.2646528697
21	44723	23.2	1591.3588837255
21	45123	23.3	1591.4567850539
21	45523	23.4	1591.5523740007
21	45923	23.5	1591.649416673
21	46323	23.6	1591.7463652017
21	46723	23.7	1591.8436524831
21	47123	23.8	1591.9376967978
21	47567	23.9	1592.0354296453
21	47969	24	1592.1295881793
21	48369	24.1	1592.2250936599
21	48769	24.2	1592.3197093476
21	49169	24.3	1592.4172972273
21	49569	24.4	1592.5139638176
21	49969	24.5	1592.6105756732
21	50369	24.6	1592.7088254048
21	50769	24.7	1592.8036152935
21	51169	24.8	1592.897722654
21	51569	24.9	1592.9934141962
21	51971	25	1593.0923510706
21	52371	25.1	1593.1890550479
21	52771	25.2	1593.2834698921
21	53171	25.3	1593.3798389444
21	53571	25.4	1593.4754501069
21	53971	25.5	1593.5694992254
21	54371	25.6	1593.6685812622
21	54771	25.7	1593.7624084326
21	55171	25.8	1593.8588748677
21	55571	25.9	1593.9542916724
21	55973	26	1594.0493607474
21	56373	26.1	1594.1481128847
21	56773	26.2	1594.2462002784
21	57173	26.3	1594.3397153001
21	57573	26.4	1594.4389328565
21	57973	26.5	1594.5345689086
21	58373	26.6	1594.6318034176
21	58773	26.7	1594.7289487235
21	59173	26.8	1594.8249973822
21	59573	26.9	1594.9204604896
21	59975	27	1595.014228099
21	60375	27.1	1595.108597884
21	60775	27.2	1595.2067429228
21	61175	27.3	1595.3048315821
21	61575	27.4	1595.3987185862
21	61975	27.5	1595.4967349069
21	62375	27.6	1595.5951827923
21	62775	27.7	1595.6912476281
21	63175	27.8	1595.7847424895
21	63575	27.9	1595.8800399899
21	63977	28	1595.9738511862
21	64377	28.1	1596.0697000995
21	64777	28.2	1596.1679616543
21	65177	28.3	1596.2638626732
21	65577	28.4	1596.3604818098
21	65977	28.5	1596.4554713937
21	66377	28.6	1596.5506452853
21	66777	28.7	1596.6468883371
21	67177	28.8	1596.7421151092
21	67577	28.9	1596.8376880698
21	67979	29	1596.9335153056
21	68379	29.1	1597.0308885798
21	68779	29.2	1597.1274723159
21	69179	29.3	1597.2247608844
21	69579	29.4	1597.3218493396
21	69979	29.5	1597.4207259808
21	70484	29.6	1597.5195320221
21	70989	29.7	1597.6177717419
21	71494	29.8	1597.7140526706
21	71999	29.9	1597.8125352999
21	72506	30	1597.9078767216
21	73011	30.1	1598.0036450895
21	73516	30.2	1598.099694646
21	74021	30.3	1598.1981386496
21	74526	30.4	1598.2961407183
21	75031	30.5	1598.3897052864
21	75536	30.6	1598.4863029197
21	76041	30.7	1598.5828444334
21	76546	30.8	1598.6792031154
21	77051	30.9	1598.7755518379
21	77558	31	1598.8689604849
21	78063	31.1	1598.9635300469
21	78568	31.2	1599.0571101783
21	79073	31.3	1599.1514702439
21	79578	31.4	1599.2462902619
21	80083	31.5	1599.3438605592
21	80588	31.6	1599.4394770265
21	81093	31.7	1599.5329360804
21	81598	31.8	1599.6301564593
21	82103	31.9	1599.7265431779
21	82610	32	1599.8199032256
21	83115	32.1	1599.9167017294
21	83620	32.2	1600.014908121
21	84125	32.3	1600.1101040402
21	84630	32.4	1600.2068679472
21	85135	32.5	1600.3049891135
21	85640	32.6	1600.4012830788
21	86145	32.7	1600.4963377034
21	86650	32.8	1600.5938032856
21	87155	32.9	1600.6921385117
21	87662	33	1600.786872467
21	88167	33.1	1600.880763853
21	88672	33.2	1600.9752031714
21	89177	33.3	1601.0732529024
21	89682	33.4	1601.1706160596
21	90187	33.5	1601.2684100261
21	90692	33.6	1601.3624000689
21	91197	33.7	1601.4592067441
21	91702	33.8	1601.5528896358
21	92207	33.9	1601.6489765206
21	92714	34	1601.7438761937
21	93219	34.1	1601.8403242799
21	93724	34.2	1601.9362276029
21	94229	34.3	1602.0335879233
21	94734	34.4	1602.1311264066
21	95239	34.5	1602.2293018149
21	95744	34.6	1602.3231686382
21	96249	34.7	1602.4180831453
21	96754	34.8	1602.513428824
21	97259	34.9	1602.609507829
21	97766	35	1602.7047099993
21	98271	35.1	1602.7989147492
21	98776	35.2	1602.8959734533
21	99281	35.3	1602.9932905016
21	99786	35.4	1603.091331291
21	100291	35.5	1603.1866576858
21	100796	35.6	1603.2843619548
21	101301	35.7	1603.3818994509
21	101806	35.8	1603.4759648684
21	102311	35.9	1603.5737156644
21	102818	36	1603.6694095936
21	103323	36.1	1603.76361374
21	103945	36.2	1603.8565793242
21	104541	36.3	1603.9537285455
21	105163	36.4	1604.0482777311
21	105785	36.5	1604.1423571659
21	106407	36.6	1604.2404283741
21	107029	36.7	1604.336519069
21	107625	36.8	1604.4309916236
21	108221	36.9	1604.5252652913
21	108819	37	1604.6229193844
21	109441	37.1	1604.7210125392
21	110063	37.2	1604.8190069022
21	110685	37.3	1604.9127004268
21	111281	37.4	1605.0106152082
21	111877	37.5	1605.1050530728
21	112499	37.6	1605.200021592
21	113121	37.7	1605.297992235
21	113743	37.8	1605.3960922947
21	114365	37.9	1605.493877816
21	114989	38	1605.5911973836
21	115611	38.1	1605.6870572213
21	116233	38.2	1605.7832828639
21	116855	38.3	1605.8786805617
21	117477	38.4	1605.9767629644
21	118099	38.5	1606.071262151
21	118695	38.6	1606.1677108062
20	3338	6.8	2413.5228035761
20	3438	6.9	2413.5228035761
20	3540	7	2413.503756805
20	3640	7.1	2413.4749889814
20	3740	7.2	2413.4377187095
20	3840	7.3	2413.390223564
20	3940	7.4	2413.3362216081
20	4040	7.5	2413.2781717714
20	4140	7.6	2413.2130064016
20	4240	7.7	2413.1420493176
20	4397	7.8	2413.0628563407
20	4554	7.9	2412.9816435562
20	4713	8	2412.8961318948
20	4870	8.1	2412.8070964623
20	5027	8.2	2412.7143172347
20	5184	8.3	2412.6215595421
20	5341	8.4	2412.5254680023
20	5498	8.5	2412.4270444317
20	5655	8.6	2412.3256572509
20	5812	8.7	2412.2202116937
20	5969	8.8	2412.1147622066
20	6126	8.9	2412.0093290149
20	6354	9	2411.9028812399
20	6580	9.1	2411.7933882835
20	6806	9.2	2411.6800230626
20	7032	9.3	2411.5681633339
20	7258	9.4	2411.455591385
20	7484	9.5	2411.3405628604
20	7710	9.6	2411.2228001854
20	7936	9.7	2411.106060933
20	8162	9.8	2410.9875409184
20	8388	9.9	2410.8711090634
20	8616	10	2410.7508643266
20	8843	10.1	2410.6329783759
20	9069	10.2	2410.5147268273
20	9295	10.3	2410.3945839964
20	9521	10.4	2410.270739985
20	9747	10.5	2410.1490848878
20	9973	10.6	2410.0296304877
20	10199	10.7	2409.9096088891
20	10425	10.8	2409.7888343214
20	10651	10.9	2409.6660906028
20	10879	11	2409.5409481792
20	11105	11.1	2409.414964241
20	11331	11.2	2409.2912635414
20	11557	11.3	2409.1684627858
20	11783	11.4	2409.0417437897
20	12009	11.5	2408.9183828321
20	12235	11.6	2408.7912552047
20	12461	11.7	2408.6691165321
20	12687	11.8	2408.5460123317
20	12913	11.9	2408.4203093861
20	13141	12	2408.2921845342
20	13367	12.1	2408.1640679288
20	13593	12.2	2408.0388826267
20	13819	12.3	2407.9114099892
20	14045	12.4	2407.7873960406
20	14271	12.5	2407.6624410572
20	14497	12.6	2407.5483079506
20	14723	12.7	2407.4534495608
20	14949	12.8	2407.3576931193
20	15175	12.9	2407.2627794889
20	15403	13	2407.1661579884
20	15629	13.1	2407.0704380457
20	15855	13.2	2406.9764990599
20	16081	13.3	2406.879631498
20	16307	13.4	2406.7863967569
20	16533	13.5	2406.69419411
20	16759	13.6	2406.6016710954
20	16985	13.7	2406.5082590071
20	17211	13.8	2406.4136384489
20	17437	13.9	2406.3190232415
20	17665	14	2406.2235321434
20	17891	14.1	2406.1302947731
20	18117	14.2	2406.036575196
20	18343	14.3	2405.9395619986
20	18569	14.4	2405.8445127591
20	18795	14.5	2405.7489532899
20	19021	14.6	2405.6518673783
20	19247	14.7	2405.5584303077
20	19473	14.8	2405.462402578
20	19699	14.9	2405.366799553
20	19927	15	2405.2705305205
20	20153	15.1	2405.1744404301
20	20379	15.2	2405.0801366048
20	20605	15.3	2404.9832593529
20	20831	15.4	2404.8856875609
20	21057	15.5	2404.7896859815
20	21283	15.6	2404.6948842589
20	21509	15.7	2404.6007099219
20	21735	15.8	2404.5044377623
20	21961	15.9	2404.4119696551
20	22189	16	2404.3156341283
20	22415	16.1	2404.2226357047
20	22641	16.2	2404.1278318753
20	22867	16.3	2404.0321163281
20	23174	16.4	2403.9385362936
20	23481	16.5	2403.8419507783
20	23788	16.6	2403.747484758
20	24095	16.7	2403.6512349353
20	24402	16.8	2403.5565446416
20	24709	16.9	2403.4634808109
20	25018	17	2403.3704523302
20	25325	17.1	2403.2736922201
20	25632	17.2	2403.1769182779
20	25939	17.3	2403.0802958156
20	26246	17.4	2402.9830486745
20	26553	17.5	2402.8877601295
20	26860	17.6	2402.7955097363
20	27167	17.7	2402.6996620359
20	27474	17.8	2402.6038709828
20	27781	17.9	2402.5104800287
20	28090	18	2402.4143943945
20	28397	18.1	2402.3213201739
20	28704	18.2	2402.2259152883
20	29011	18.3	2402.1306785424
20	29318	18.4	2402.0354782741
20	29625	18.5	2401.9393029457
20	29932	18.6	2401.8453830673
20	30239	18.7	2401.7487410359
20	30546	18.8	2401.654612685
20	30853	18.9	2401.5579579158
20	31162	19	2401.4621400657
20	31469	19.1	2401.3671361557
20	31776	19.2	2401.2732008734
20	32083	19.3	2401.1798015693
20	32390	19.4	2401.0862516371
20	32697	19.5	2400.9900282999
20	33004	19.6	2400.8954652298
20	33311	19.7	2400.8002450913
20	33618	19.8	2400.7071741852
20	33925	19.9	2400.6110996392
20	34234	20	2400.5137137789
20	34541	20.1	2400.4212879208
20	34848	20.2	2400.3261953841
20	35155	20.3	2400.2295189087
20	35462	20.4	2400.1330162011
20	35769	20.5	2400.0385209161
20	36076	20.6	2399.9440063264
20	36383	20.7	2399.8486031803
20	36690	20.8	2399.7525203136
20	36997	20.9	2399.6547782773
20	37306	21	2399.5622562864
20	37613	21.1	2399.4653475917
20	37920	21.2	2399.3726082582
20	38227	21.3	2399.2766558661
20	38534	21.4	2399.180791323
20	38841	21.5	2399.0854266114
20	39148	21.6	2398.9919907413
20	39455	21.7	2398.8991142617
20	39762	21.8	2398.8034610534
20	40069	21.9	2398.7114096779
20	40378	22	2398.6152316926
20	40685	22.1	2398.5189418334
20	40992	22.2	2398.4248603582
20	41299	22.3	2398.331725452
20	41606	22.4	2398.2355555309
20	41913	22.5	2398.1387164077
20	42220	22.6	2398.04573806
20	42527	22.7	2397.953306041
20	42834	22.8	2397.8604460146
20	43521	22.9	2397.7675234228
20	43923	23	2397.6695039012
20	44323	23.1	2397.5740460579
20	44723	23.2	2397.4810118296
20	45123	23.3	2397.3843537404
20	45523	23.4	2397.289978668
20	45923	23.5	2397.1941683305
20	46323	23.6	2397.098450942
20	46723	23.7	2397.002399101
20	47123	23.8	2396.9095490458
20	47567	23.9	2396.8130572977
20	47969	24	2396.7200944733
20	48369	24.1	2396.6258018073
20	48769	24.2	2396.5323876343
20	49169	24.3	2396.4360390137
20	49569	24.4	2396.3405999822
20	49969	24.5	2396.2452149913
20	50369	24.6	2396.1482129224
20	50769	24.7	2396.0546267608
20	51169	24.8	2395.9617144604
20	51569	24.9	2395.8672380957
20	51971	25	2395.7695576107
20	52371	25.1	2395.6740816672
20	52771	25.2	2395.580865787
20	53171	25.3	2395.4857205157
20	53571	25.4	2395.39132351
20	53971	25.5	2395.2984687118
20	54371	25.6	2395.2006449072
20	54771	25.7	2395.1080092388
20	55171	25.8	2395.0127678211
20	55571	25.9	2394.9185627046
20	55973	26	2394.8247009024
20	56373	26.1	2394.7272028087
20	56773	26.2	2394.6303610161
20	57173	26.3	2394.5380335328
20	57573	26.4	2394.4400759299
20	57973	26.5	2394.3456543506
20	58373	26.6	2394.2496546122
20	58773	26.7	2394.1537429446
20	59173	26.8	2394.0589139981
20	59573	26.9	2393.9646631669
20	59975	27	2393.8720863034
20	60375	27.1	2393.7789149104
20	60775	27.2	2393.6820162055
20	61175	27.3	2393.5851731645
20	61575	27.4	2393.4924784217
20	61975	27.5	2393.3957068005
20	62375	27.6	2393.2985090946
20	62775	27.7	2393.2036641766
20	63175	27.8	2393.1113565966
20	63575	27.9	2393.0172692697
20	63977	28	2392.9246493722
20	64377	28.1	2392.8300176343
20	64777	28.2	2392.7330038929
20	65177	28.3	2392.6383207117
20	65577	28.4	2392.5429285313
20	65977	28.5	2392.4491452111
20	66377	28.6	2392.3551799229
20	66777	28.7	2392.2601590517
20	67177	28.8	2392.1661415549
20	67577	28.9	2392.0717822654
20	67979	29	2391.9771719294
20	68379	29.1	2391.881035189
20	68779	29.2	2391.78567796
20	69179	29.3	2391.6896248487
20	69579	29.4	2391.5937693106
20	69979	29.5	2391.496148293
20	70484	29.6	2391.39859698
20	70989	29.7	2391.3016047967
20	71494	29.8	2391.2065465291
20	71999	29.9	2391.1093145211
20	72506	30	2391.0151838303
20	73011	30.1	2390.9206316152
20	73516	30.2	2390.8258017828
20	74021	30.3	2390.7286079093
20	74526	30.4	2390.6318503584
20	75031	30.5	2390.5394739574
20	75536	30.6	2390.4441030074
20	76041	30.7	2390.3487874654
20	76546	30.8	2390.2536524325
20	77051	30.9	2390.1585272325
20	77558	31	2390.0663047726
20	78063	31.1	2389.9729361391
20	78568	31.2	2389.8805443726
20	79073	31.3	2389.787382576
20	79578	31.4	2389.6937666682
20	80083	31.5	2389.5974354059
20	80588	31.6	2389.5030331626
20	81093	31.7	2389.4107609352
20	81598	31.8	2389.3147751483
20	82103	31.9	2389.2196124345
20	82610	32	2389.1274379566
20	83115	32.1	2389.0318686872
20	83620	32.2	2388.9349094086
20	84125	32.3	2388.8409223729
20	84630	32.4	2388.7453872605
20	85135	32.5	2388.6485121255
20	85640	32.6	2388.5534409876
20	86145	32.7	2388.459593452
20	86650	32.8	2388.3633655753
20	87155	32.9	2388.2662790981
20	87662	33	2388.1727481596
20	88167	33.1	2388.0800490904
20	88672	33.2	2387.9868090475
20	89177	33.3	2387.8900044401
20	89682	33.4	2387.7938776875
20	90187	33.5	2387.6973255972
20	90692	33.6	2387.6045291241
20	91197	33.7	2387.5089517867
20	91702	33.8	2387.4164585648
20	92207	33.9	2387.3215918776
20	92714	34	2387.2278973262
20	93219	34.1	2387.132674024
20	93724	34.2	2387.0379885675
20	94229	34.3	2386.9418646161
20	94734	34.4	2386.8455647645
20	95239	34.5	2386.7486360758
20	95744	34.6	2386.6559612575
20	96249	34.7	2386.5622520598
20	96754	34.8	2386.4681171665
20	97259	34.9	2386.3732582586
20	97766	35	2386.2792650517
20	98271	35.1	2386.1862565977
20	98776	35.2	2386.0904304323
20	99281	35.3	2385.9943492038
20	99786	35.4	2385.8975534235
20	100291	35.5	2385.8034375695
20	100796	35.6	2385.7069740368
20	101301	35.7	2385.6106751596
20	101806	35.8	2385.5178042692
20	102311	35.9	2385.4212948007
20	102818	36	2385.3268160787
20	103323	36.1	2385.233808222
20	103945	36.2	2385.1420231983
20	104541	36.3	2385.0461076649
20	105163	36.4	2384.9527591499
20	105785	36.5	2384.85987442
20	106407	36.6	2384.7630486083
20	107029	36.7	2384.668178159
20	107625	36.8	2384.5749053017
20	108221	36.9	2384.4818288063
20	108819	37	2384.3854148124
20	109441	37.1	2384.2885673329
20	110063	37.2	2384.1918173896
20	110685	37.3	2384.0993136697
20	111281	37.4	2384.0026422982
20	111877	37.5	2383.9094036903
20	112499	37.6	2383.8156411668
20	113121	37.7	2383.7189146428
20	113743	37.8	2383.6220603462
20	114365	37.9	2383.525516593
20	114989	38	2383.4294328769
20	115611	38.1	2383.3347903538
20	116233	38.2	2383.239786671
20	116855	38.3	2383.1456004186
20	117477	38.4	2383.0487635548
20	118099	38.5	2382.955464403
20	118695	38.6	2382.8602405393
